REMARK  Name = ../refined-set-2016/2qi6/2qi6_pocket.pdb
REMARK  221 active torsions:
REMARK  status: ('A' for Active; 'I' for Inactive)
REMARK    1  A    between atoms: _1  and  _3
REMARK    2  A    between atoms: _3  and  _4
REMARK    3  A    between atoms: _3  and  _6
REMARK    4  A    between atoms: _6  and  _7
REMARK    5  A    between atoms: _7  and  _8
REMARK    6  A    between atoms: _8  and  _9
REMARK    7  A    between atoms: _18  and  _20
REMARK    8  A    between atoms: _20  and  _21
REMARK    9  A    between atoms: _20  and  _23
REMARK   10  A    between atoms: _23  and  _24
REMARK   11  A    between atoms: _27  and  _29
REMARK   12  A    between atoms: _29  and  _30
REMARK   13  A    between atoms: _29  and  _32
REMARK   14  A    between atoms: _32  and  _33
REMARK   15  A    between atoms: _36  and  _38
REMARK   16  A    between atoms: _38  and  _39
REMARK   17  A    between atoms: _38  and  _41
REMARK   18  A    between atoms: _41  and  _42
REMARK   19  A    between atoms: _45  and  _47
REMARK   20  A    between atoms: _47  and  _48
REMARK   21  A    between atoms: _47  and  _50
REMARK   22  A    between atoms: _50  and  _51
REMARK   23  A    between atoms: _54  and  _56
REMARK   24  A    between atoms: _56  and  _57
REMARK   25  A    between atoms: _59  and  _61
REMARK   26  A    between atoms: _61  and  _62
REMARK   27  A    between atoms: _65  and  _67
REMARK   28  A    between atoms: _67  and  _68
REMARK   29  A    between atoms: _67  and  _70
REMARK   30  A    between atoms: _70  and  _71
REMARK   31  A    between atoms: _74  and  _76
REMARK   32  A    between atoms: _76  and  _77
REMARK   33  A    between atoms: _76  and  _79
REMARK   34  A    between atoms: _79  and  _80
REMARK   35  A    between atoms: _83  and  _85
REMARK   36  A    between atoms: _85  and  _86
REMARK   37  A    between atoms: _85  and  _88
REMARK   38  A    between atoms: _88  and  _89
REMARK   39  A    between atoms: _92  and  _94
REMARK   40  A    between atoms: _94  and  _95
REMARK   41  A    between atoms: _94  and  _97
REMARK   42  A    between atoms: _100  and  _102
REMARK   43  A    between atoms: _102  and  _103
REMARK   44  A    between atoms: _102  and  _105
REMARK   45  A    between atoms: _105  and  _106
REMARK   46  A    between atoms: _106  and  _107
REMARK   47  A    between atoms: _107  and  _108
REMARK   48  A    between atoms: _108  and  _109
REMARK   49  A    between atoms: _113  and  _115
REMARK   50  A    between atoms: _115  and  _116
REMARK   51  A    between atoms: _115  and  _118
REMARK   52  A    between atoms: _118  and  _119
REMARK   53  A    between atoms: _119  and  _120
REMARK   54  A    between atoms: _122  and  _124
REMARK   55  A    between atoms: _124  and  _125
REMARK   56  A    between atoms: _124  and  _127
REMARK   57  A    between atoms: _127  and  _128
REMARK   58  A    between atoms: _131  and  _133
REMARK   59  A    between atoms: _133  and  _134
REMARK   60  A    between atoms: _136  and  _138
REMARK   61  A    between atoms: _138  and  _139
REMARK   62  A    between atoms: _141  and  _143
REMARK   63  A    between atoms: _143  and  _144
REMARK   64  A    between atoms: _143  and  _146
REMARK   65  A    between atoms: _146  and  _147
REMARK   66  A    between atoms: _150  and  _152
REMARK   67  A    between atoms: _152  and  _153
REMARK   68  A    between atoms: _155  and  _157
REMARK   69  A    between atoms: _157  and  _158
REMARK   70  A    between atoms: _160  and  _162
REMARK   71  A    between atoms: _162  and  _163
REMARK   72  A    between atoms: _162  and  _165
REMARK   73  A    between atoms: _165  and  _166
REMARK   74  A    between atoms: _169  and  _171
REMARK   75  A    between atoms: _171  and  _172
REMARK   76  A    between atoms: _171  and  _174
REMARK   77  A    between atoms: _177  and  _179
REMARK   78  A    between atoms: _179  and  _180
REMARK   79  A    between atoms: _179  and  _182
REMARK   80  A    between atoms: _182  and  _183
REMARK   81  A    between atoms: _186  and  _188
REMARK   82  A    between atoms: _188  and  _189
REMARK   83  A    between atoms: _188  and  _191
REMARK   84  A    between atoms: _191  and  _192
REMARK   85  A    between atoms: _196  and  _197
REMARK   86  A    between atoms: _202  and  _204
REMARK   87  A    between atoms: _204  and  _205
REMARK   88  A    between atoms: _204  and  _207
REMARK   89  A    between atoms: _210  and  _212
REMARK   90  A    between atoms: _212  and  _213
REMARK   91  A    between atoms: _212  and  _215
REMARK   92  A    between atoms: _215  and  _216
REMARK   93  A    between atoms: _221  and  _223
REMARK   94  A    between atoms: _223  and  _224
REMARK   95  A    between atoms: _223  and  _226
REMARK   96  A    between atoms: _226  and  _227
REMARK   97  A    between atoms: _230  and  _232
REMARK   98  A    between atoms: _232  and  _233
REMARK   99  A    between atoms: _232  and  _235
REMARK  100  A    between atoms: _235  and  _236
REMARK  101  A    between atoms: _239  and  _241
REMARK  102  A    between atoms: _241  and  _242
REMARK  103  A    between atoms: _244  and  _246
REMARK  104  A    between atoms: _246  and  _247
REMARK  105  A    between atoms: _246  and  _249
REMARK  106  A    between atoms: _249  and  _250
REMARK  107  A    between atoms: _250  and  _251
REMARK  108  A    between atoms: _251  and  _252
REMARK  109  A    between atoms: _261  and  _263
REMARK  110  A    between atoms: _263  and  _264
REMARK  111  A    between atoms: _263  and  _266
REMARK  112  A    between atoms: _266  and  _267
REMARK  113  A    between atoms: _267  and  _268
REMARK  114  A    between atoms: _268  and  _269
REMARK  115  A    between atoms: _278  and  _280
REMARK  116  A    between atoms: _280  and  _281
REMARK  117  A    between atoms: _280  and  _283
REMARK  118  A    between atoms: _283  and  _284
REMARK  119  A    between atoms: _287  and  _289
REMARK  120  A    between atoms: _289  and  _290
REMARK  121  A    between atoms: _289  and  _292
REMARK  122  A    between atoms: _292  and  _293
REMARK  123  A    between atoms: _296  and  _298
REMARK  124  A    between atoms: _298  and  _299
REMARK  125  A    between atoms: _298  and  _301
REMARK  126  A    between atoms: _301  and  _302
REMARK  127  A    between atoms: _305  and  _307
REMARK  128  A    between atoms: _307  and  _308
REMARK  129  A    between atoms: _307  and  _310
REMARK  130  A    between atoms: _310  and  _311
REMARK  131  A    between atoms: _314  and  _316
REMARK  132  A    between atoms: _316  and  _317
REMARK  133  A    between atoms: _319  and  _321
REMARK  134  A    between atoms: _321  and  _322
REMARK  135  A    between atoms: _325  and  _327
REMARK  136  A    between atoms: _327  and  _328
REMARK  137  A    between atoms: _327  and  _330
REMARK  138  A    between atoms: _330  and  _331
REMARK  139  A    between atoms: _334  and  _336
REMARK  140  A    between atoms: _336  and  _337
REMARK  141  A    between atoms: _336  and  _339
REMARK  142  A    between atoms: _339  and  _340
REMARK  143  A    between atoms: _343  and  _345
REMARK  144  A    between atoms: _345  and  _346
REMARK  145  A    between atoms: _345  and  _348
REMARK  146  A    between atoms: _348  and  _349
REMARK  147  A    between atoms: _352  and  _354
REMARK  148  A    between atoms: _354  and  _355
REMARK  149  A    between atoms: _354  and  _357
REMARK  150  A    between atoms: _360  and  _362
REMARK  151  A    between atoms: _362  and  _363
REMARK  152  A    between atoms: _362  and  _365
REMARK  153  A    between atoms: _365  and  _366
REMARK  154  A    between atoms: _366  and  _367
REMARK  155  A    between atoms: _367  and  _368
REMARK  156  A    between atoms: _368  and  _369
REMARK  157  A    between atoms: _373  and  _375
REMARK  158  A    between atoms: _375  and  _376
REMARK  159  A    between atoms: _375  and  _378
REMARK  160  A    between atoms: _378  and  _379
REMARK  161  A    between atoms: _379  and  _380
REMARK  162  A    between atoms: _382  and  _384
REMARK  163  A    between atoms: _384  and  _385
REMARK  164  A    between atoms: _384  and  _387
REMARK  165  A    between atoms: _387  and  _388
REMARK  166  A    between atoms: _391  and  _393
REMARK  167  A    between atoms: _393  and  _394
REMARK  168  A    between atoms: _396  and  _398
REMARK  169  A    between atoms: _398  and  _399
REMARK  170  A    between atoms: _401  and  _403
REMARK  171  A    between atoms: _403  and  _404
REMARK  172  A    between atoms: _403  and  _406
REMARK  173  A    between atoms: _406  and  _407
REMARK  174  A    between atoms: _410  and  _412
REMARK  175  A    between atoms: _412  and  _413
REMARK  176  A    between atoms: _415  and  _417
REMARK  177  A    between atoms: _417  and  _418
REMARK  178  A    between atoms: _420  and  _422
REMARK  179  A    between atoms: _422  and  _423
REMARK  180  A    between atoms: _422  and  _425
REMARK  181  A    between atoms: _425  and  _426
REMARK  182  A    between atoms: _432  and  _434
REMARK  183  A    between atoms: _434  and  _435
REMARK  184  A    between atoms: _434  and  _437
REMARK  185  A    between atoms: _437  and  _438
REMARK  186  A    between atoms: _441  and  _443
REMARK  187  A    between atoms: _443  and  _444
REMARK  188  A    between atoms: _443  and  _446
REMARK  189  A    between atoms: _446  and  _447
REMARK  190  A    between atoms: _450  and  _452
REMARK  191  A    between atoms: _452  and  _453
REMARK  192  A    between atoms: _452  and  _455
REMARK  193  A    between atoms: _455  and  _456
REMARK  194  A    between atoms: _460  and  _461
REMARK  195  A    between atoms: _466  and  _468
REMARK  196  A    between atoms: _468  and  _469
REMARK  197  A    between atoms: _468  and  _471
REMARK  198  A    between atoms: _474  and  _476
REMARK  199  A    between atoms: _476  and  _477
REMARK  200  A    between atoms: _476  and  _479
REMARK  201  A    between atoms: _479  and  _480
REMARK  202  A    between atoms: _485  and  _487
REMARK  203  A    between atoms: _487  and  _488
REMARK  204  A    between atoms: _487  and  _490
REMARK  205  A    between atoms: _490  and  _491
REMARK  206  A    between atoms: _494  and  _496
REMARK  207  A    between atoms: _496  and  _497
REMARK  208  A    between atoms: _496  and  _499
REMARK  209  A    between atoms: _499  and  _500
REMARK  210  A    between atoms: _503  and  _505
REMARK  211  A    between atoms: _505  and  _506
REMARK  212  A    between atoms: _508  and  _510
REMARK  213  A    between atoms: _510  and  _511
REMARK  214  A    between atoms: _510  and  _513
REMARK  215  A    between atoms: _513  and  _514
REMARK  216  A    between atoms: _514  and  _515
REMARK  217  A    between atoms: _515  and  _516
REMARK  218  A    between atoms: _525  and  _527
REMARK  219  A    between atoms: _527  and  _528
REMARK  220  A    between atoms: _527  and  _530
REMARK  221  A    between atoms: _530  and  _531
REMARK                            x       y       z     vdW  Elec       q    Type
REMARK                         _______ _______ _______ _____ _____    ______ ____
ROOT
ATOM      1  NE  ARG A   1      21.146  37.310  23.887  0.00  0.00    -0.265 N 
ATOM      2  HE  ARG A   1      20.180  36.933  23.803  0.00  0.00    +0.259 HD
ATOM      3  CZ  ARG A   1      21.378  38.523  23.390  0.00  0.00    +0.342 C 
ATOM      4  NH2 ARG A   1      22.583  39.085  23.470  0.00  0.00    -0.292 N 
ATOM      5 HH21 ARG A   1      23.365  38.575  23.928  0.00  0.00    +0.255 HD
ATOM      6 HH22 ARG A   1      22.742  40.034  23.075  0.00  0.00    +0.255 HD
ATOM      7  NH1 ARG A   1      20.386  39.191  22.819  0.00  0.00    -0.292 N 
ATOM      8 HH11 ARG A   1      19.438  38.767  22.763  0.00  0.00    +0.255 HD
ATOM      9 HH12 ARG A   1      20.555  40.139  22.427  0.00  0.00    +0.255 HD
ENDROOT
BRANCH   1  10
ATOM     10  CD  ARG A   1      22.147  36.467  24.542  0.00  0.00    +0.174 C 
BRANCH  10  11
ATOM     11  CG  ARG A   1      21.502  35.265  25.210  0.00  0.00    +0.045 C 
BRANCH  11  12
ATOM     12  CB  ARG A   1      22.467  34.563  26.130  0.00  0.00    +0.029 C 
BRANCH  12  13
ATOM     13  CA  ARG A   1      21.830  33.550  27.086  0.00  0.00    +0.133 C 
BRANCH  13  14
ATOM     14  N   ARG A   1      21.150  34.206  28.212  0.00  0.00    -0.239 NA
ATOM     15  H   ARG A   1      21.132  35.245  28.263  0.00  0.00    +0.142 HD
ENDBRANCH  13  14
BRANCH  13  16
ATOM     16  C   ARG A   1      22.946  32.654  27.621  0.00  0.00    +0.224 C 
ATOM     17  O   ARG A   1      23.743  33.101  28.465  0.00  0.00    -0.287 OA
ENDBRANCH  13  16
ENDBRANCH  12  13
ENDBRANCH  11  12
ENDBRANCH  10  11
ENDBRANCH   1  10
TORSDOF 6
REMARK  Name = ../refined-set-2016/2qi6/2qi6_pocket.pdb
REMARK  221 active torsions:
REMARK  status: ('A' for Active; 'I' for Inactive)
REMARK    1  A    between atoms: _1  and  _3
REMARK    2  A    between atoms: _3  and  _4
REMARK    3  A    between atoms: _3  and  _6
REMARK    4  A    between atoms: _6  and  _7
REMARK    5  A    between atoms: _7  and  _8
REMARK    6  A    between atoms: _8  and  _9
REMARK    7  A    between atoms: _18  and  _20
REMARK    8  A    between atoms: _20  and  _21
REMARK    9  A    between atoms: _20  and  _23
REMARK   10  A    between atoms: _23  and  _24
REMARK   11  A    between atoms: _27  and  _29
REMARK   12  A    between atoms: _29  and  _30
REMARK   13  A    between atoms: _29  and  _32
REMARK   14  A    between atoms: _32  and  _33
REMARK   15  A    between atoms: _36  and  _38
REMARK   16  A    between atoms: _38  and  _39
REMARK   17  A    between atoms: _38  and  _41
REMARK   18  A    between atoms: _41  and  _42
REMARK   19  A    between atoms: _45  and  _47
REMARK   20  A    between atoms: _47  and  _48
REMARK   21  A    between atoms: _47  and  _50
REMARK   22  A    between atoms: _50  and  _51
REMARK   23  A    between atoms: _54  and  _56
REMARK   24  A    between atoms: _56  and  _57
REMARK   25  A    between atoms: _59  and  _61
REMARK   26  A    between atoms: _61  and  _62
REMARK   27  A    between atoms: _65  and  _67
REMARK   28  A    between atoms: _67  and  _68
REMARK   29  A    between atoms: _67  and  _70
REMARK   30  A    between atoms: _70  and  _71
REMARK   31  A    between atoms: _74  and  _76
REMARK   32  A    between atoms: _76  and  _77
REMARK   33  A    between atoms: _76  and  _79
REMARK   34  A    between atoms: _79  and  _80
REMARK   35  A    between atoms: _83  and  _85
REMARK   36  A    between atoms: _85  and  _86
REMARK   37  A    between atoms: _85  and  _88
REMARK   38  A    between atoms: _88  and  _89
REMARK   39  A    between atoms: _92  and  _94
REMARK   40  A    between atoms: _94  and  _95
REMARK   41  A    between atoms: _94  and  _97
REMARK   42  A    between atoms: _100  and  _102
REMARK   43  A    between atoms: _102  and  _103
REMARK   44  A    between atoms: _102  and  _105
REMARK   45  A    between atoms: _105  and  _106
REMARK   46  A    between atoms: _106  and  _107
REMARK   47  A    between atoms: _107  and  _108
REMARK   48  A    between atoms: _108  and  _109
REMARK   49  A    between atoms: _113  and  _115
REMARK   50  A    between atoms: _115  and  _116
REMARK   51  A    between atoms: _115  and  _118
REMARK   52  A    between atoms: _118  and  _119
REMARK   53  A    between atoms: _119  and  _120
REMARK   54  A    between atoms: _122  and  _124
REMARK   55  A    between atoms: _124  and  _125
REMARK   56  A    between atoms: _124  and  _127
REMARK   57  A    between atoms: _127  and  _128
REMARK   58  A    between atoms: _131  and  _133
REMARK   59  A    between atoms: _133  and  _134
REMARK   60  A    between atoms: _136  and  _138
REMARK   61  A    between atoms: _138  and  _139
REMARK   62  A    between atoms: _141  and  _143
REMARK   63  A    between atoms: _143  and  _144
REMARK   64  A    between atoms: _143  and  _146
REMARK   65  A    between atoms: _146  and  _147
REMARK   66  A    between atoms: _150  and  _152
REMARK   67  A    between atoms: _152  and  _153
REMARK   68  A    between atoms: _155  and  _157
REMARK   69  A    between atoms: _157  and  _158
REMARK   70  A    between atoms: _160  and  _162
REMARK   71  A    between atoms: _162  and  _163
REMARK   72  A    between atoms: _162  and  _165
REMARK   73  A    between atoms: _165  and  _166
REMARK   74  A    between atoms: _169  and  _171
REMARK   75  A    between atoms: _171  and  _172
REMARK   76  A    between atoms: _171  and  _174
REMARK   77  A    between atoms: _177  and  _179
REMARK   78  A    between atoms: _179  and  _180
REMARK   79  A    between atoms: _179  and  _182
REMARK   80  A    between atoms: _182  and  _183
REMARK   81  A    between atoms: _186  and  _188
REMARK   82  A    between atoms: _188  and  _189
REMARK   83  A    between atoms: _188  and  _191
REMARK   84  A    between atoms: _191  and  _192
REMARK   85  A    between atoms: _196  and  _197
REMARK   86  A    between atoms: _202  and  _204
REMARK   87  A    between atoms: _204  and  _205
REMARK   88  A    between atoms: _204  and  _207
REMARK   89  A    between atoms: _210  and  _212
REMARK   90  A    between atoms: _212  and  _213
REMARK   91  A    between atoms: _212  and  _215
REMARK   92  A    between atoms: _215  and  _216
REMARK   93  A    between atoms: _221  and  _223
REMARK   94  A    between atoms: _223  and  _224
REMARK   95  A    between atoms: _223  and  _226
REMARK   96  A    between atoms: _226  and  _227
REMARK   97  A    between atoms: _230  and  _232
REMARK   98  A    between atoms: _232  and  _233
REMARK   99  A    between atoms: _232  and  _235
REMARK  100  A    between atoms: _235  and  _236
REMARK  101  A    between atoms: _239  and  _241
REMARK  102  A    between atoms: _241  and  _242
REMARK  103  A    between atoms: _244  and  _246
REMARK  104  A    between atoms: _246  and  _247
REMARK  105  A    between atoms: _246  and  _249
REMARK  106  A    between atoms: _249  and  _250
REMARK  107  A    between atoms: _250  and  _251
REMARK  108  A    between atoms: _251  and  _252
REMARK  109  A    between atoms: _261  and  _263
REMARK  110  A    between atoms: _263  and  _264
REMARK  111  A    between atoms: _263  and  _266
REMARK  112  A    between atoms: _266  and  _267
REMARK  113  A    between atoms: _267  and  _268
REMARK  114  A    between atoms: _268  and  _269
REMARK  115  A    between atoms: _278  and  _280
REMARK  116  A    between atoms: _280  and  _281
REMARK  117  A    between atoms: _280  and  _283
REMARK  118  A    between atoms: _283  and  _284
REMARK  119  A    between atoms: _287  and  _289
REMARK  120  A    between atoms: _289  and  _290
REMARK  121  A    between atoms: _289  and  _292
REMARK  122  A    between atoms: _292  and  _293
REMARK  123  A    between atoms: _296  and  _298
REMARK  124  A    between atoms: _298  and  _299
REMARK  125  A    between atoms: _298  and  _301
REMARK  126  A    between atoms: _301  and  _302
REMARK  127  A    between atoms: _305  and  _307
REMARK  128  A    between atoms: _307  and  _308
REMARK  129  A    between atoms: _307  and  _310
REMARK  130  A    between atoms: _310  and  _311
REMARK  131  A    between atoms: _314  and  _316
REMARK  132  A    between atoms: _316  and  _317
REMARK  133  A    between atoms: _319  and  _321
REMARK  134  A    between atoms: _321  and  _322
REMARK  135  A    between atoms: _325  and  _327
REMARK  136  A    between atoms: _327  and  _328
REMARK  137  A    between atoms: _327  and  _330
REMARK  138  A    between atoms: _330  and  _331
REMARK  139  A    between atoms: _334  and  _336
REMARK  140  A    between atoms: _336  and  _337
REMARK  141  A    between atoms: _336  and  _339
REMARK  142  A    between atoms: _339  and  _340
REMARK  143  A    between atoms: _343  and  _345
REMARK  144  A    between atoms: _345  and  _346
REMARK  145  A    between atoms: _345  and  _348
REMARK  146  A    between atoms: _348  and  _349
REMARK  147  A    between atoms: _352  and  _354
REMARK  148  A    between atoms: _354  and  _355
REMARK  149  A    between atoms: _354  and  _357
REMARK  150  A    between atoms: _360  and  _362
REMARK  151  A    between atoms: _362  and  _363
REMARK  152  A    between atoms: _362  and  _365
REMARK  153  A    between atoms: _365  and  _366
REMARK  154  A    between atoms: _366  and  _367
REMARK  155  A    between atoms: _367  and  _368
REMARK  156  A    between atoms: _368  and  _369
REMARK  157  A    between atoms: _373  and  _375
REMARK  158  A    between atoms: _375  and  _376
REMARK  159  A    between atoms: _375  and  _378
REMARK  160  A    between atoms: _378  and  _379
REMARK  161  A    between atoms: _379  and  _380
REMARK  162  A    between atoms: _382  and  _384
REMARK  163  A    between atoms: _384  and  _385
REMARK  164  A    between atoms: _384  and  _387
REMARK  165  A    between atoms: _387  and  _388
REMARK  166  A    between atoms: _391  and  _393
REMARK  167  A    between atoms: _393  and  _394
REMARK  168  A    between atoms: _396  and  _398
REMARK  169  A    between atoms: _398  and  _399
REMARK  170  A    between atoms: _401  and  _403
REMARK  171  A    between atoms: _403  and  _404
REMARK  172  A    between atoms: _403  and  _406
REMARK  173  A    between atoms: _406  and  _407
REMARK  174  A    between atoms: _410  and  _412
REMARK  175  A    between atoms: _412  and  _413
REMARK  176  A    between atoms: _415  and  _417
REMARK  177  A    between atoms: _417  and  _418
REMARK  178  A    between atoms: _420  and  _422
REMARK  179  A    between atoms: _422  and  _423
REMARK  180  A    between atoms: _422  and  _425
REMARK  181  A    between atoms: _425  and  _426
REMARK  182  A    between atoms: _432  and  _434
REMARK  183  A    between atoms: _434  and  _435
REMARK  184  A    between atoms: _434  and  _437
REMARK  185  A    between atoms: _437  and  _438
REMARK  186  A    between atoms: _441  and  _443
REMARK  187  A    between atoms: _443  and  _444
REMARK  188  A    between atoms: _443  and  _446
REMARK  189  A    between atoms: _446  and  _447
REMARK  190  A    between atoms: _450  and  _452
REMARK  191  A    between atoms: _452  and  _453
REMARK  192  A    between atoms: _452  and  _455
REMARK  193  A    between atoms: _455  and  _456
REMARK  194  A    between atoms: _460  and  _461
REMARK  195  A    between atoms: _466  and  _468
REMARK  196  A    between atoms: _468  and  _469
REMARK  197  A    between atoms: _468  and  _471
REMARK  198  A    between atoms: _474  and  _476
REMARK  199  A    between atoms: _476  and  _477
REMARK  200  A    between atoms: _476  and  _479
REMARK  201  A    between atoms: _479  and  _480
REMARK  202  A    between atoms: _485  and  _487
REMARK  203  A    between atoms: _487  and  _488
REMARK  204  A    between atoms: _487  and  _490
REMARK  205  A    between atoms: _490  and  _491
REMARK  206  A    between atoms: _494  and  _496
REMARK  207  A    between atoms: _496  and  _497
REMARK  208  A    between atoms: _496  and  _499
REMARK  209  A    between atoms: _499  and  _500
REMARK  210  A    between atoms: _503  and  _505
REMARK  211  A    between atoms: _505  and  _506
REMARK  212  A    between atoms: _508  and  _510
REMARK  213  A    between atoms: _510  and  _511
REMARK  214  A    between atoms: _510  and  _513
REMARK  215  A    between atoms: _513  and  _514
REMARK  216  A    between atoms: _514  and  _515
REMARK  217  A    between atoms: _515  and  _516
REMARK  218  A    between atoms: _525  and  _527
REMARK  219  A    between atoms: _527  and  _528
REMARK  220  A    between atoms: _527  and  _530
REMARK  221  A    between atoms: _530  and  _531
REMARK                            x       y       z     vdW  Elec       q    Type
REMARK                         _______ _______ _______ _____ _____    ______ ____
ROOT
ATOM      1  C   GLY A   5      20.645  25.330  15.752  0.00  0.00    +0.243 C 
ATOM      2  N   ALA A   6      21.948  25.352  16.038  0.00  0.00    -0.297 N 
ATOM      3  H   ALA A   6      22.240  25.278  17.033  0.00  0.00    +0.150 HD
ATOM      4  O   GLY A   5      20.205  25.443  14.604  0.00  0.00    -0.273 OA
ENDROOT
BRANCH   2   5
ATOM      5  CA  ALA A   6      22.983  25.476  15.013  0.00  0.00    +0.149 C 
ATOM      6  CB  ALA A   6      23.981  26.565  15.407  0.00  0.00    +0.031 C 
BRANCH   5   7
ATOM      7  C   ALA A   6      23.691  24.127  14.770  0.00  0.00    +0.241 C 
ATOM      8  O   ALA A   6      24.137  23.459  15.710  0.00  0.00    -0.273 OA
ATOM      9  N   ASP A   7      23.752  23.717  13.503  0.00  0.00    -0.297 N 
ATOM     10  H   ASP A   7      23.308  24.302  12.767  0.00  0.00    +0.150 HD
BRANCH   9  11
ATOM     11  CA  ASP A   7      24.420  22.475  13.107  0.00  0.00    +0.160 C 
BRANCH  11  12
ATOM     12  C   ASP A   7      25.935  22.647  13.239  0.00  0.00    +0.241 C 
ATOM     13  O   ASP A   7      26.670  21.706  13.563  0.00  0.00    -0.273 OA
ATOM     14  N   ASP A   8      26.381  23.872  12.973  0.00  0.00    -0.297 N 
ATOM     15  H   ASP A   8      25.687  24.636  12.846  0.00  0.00    +0.150 HD
BRANCH  14  16
ATOM     16  CA  ASP A   8      27.791  24.192  12.852  0.00  0.00    +0.160 C 
BRANCH  16  17
ATOM     17  C   ASP A   8      28.226  25.153  13.947  0.00  0.00    +0.241 C 
ATOM     18  O   ASP A   8      27.415  25.869  14.543  0.00  0.00    -0.273 OA
ATOM     19  N   THR A   9      29.532  25.178  14.169  0.00  0.00    -0.295 N 
ATOM     20  H   THR A   9      30.131  24.464  13.707  0.00  0.00    +0.150 HD
BRANCH  19  21
ATOM     21  CA  THR A   9      30.159  26.161  15.030  0.00  0.00    +0.176 C 
BRANCH  21  22
ATOM     22  C   THR A   9      30.656  27.308  14.146  0.00  0.00    +0.243 C 
ATOM     23  N   VAL A  10      30.177  28.520  14.433  0.00  0.00    -0.298 N 
ATOM     24  H   VAL A  10      29.603  28.652  15.290  0.00  0.00    +0.150 HD
ATOM     25  O   THR A   9      31.432  27.095  13.205  0.00  0.00    -0.273 OA
BRANCH  23  26
ATOM     26  CA  VAL A  10      30.444  29.663  13.566  0.00  0.00    +0.137 C 
BRANCH  26  27
ATOM     27  CB  VAL A  10      29.196  30.113  12.775  0.00  0.00    +0.026 C 
ATOM     28  CG2 VAL A  10      28.437  28.918  12.226  0.00  0.00    +0.002 C 
ATOM     29  CG1 VAL A  10      29.622  31.017  11.629  0.00  0.00    +0.002 C 
ENDBRANCH  26  27
BRANCH  26  30
ATOM     30  C   VAL A  10      30.974  30.825  14.388  0.00  0.00    +0.227 C 
ATOM     31  O   VAL A  10      30.313  31.273  15.325  0.00  0.00    -0.286 OA
ENDBRANCH  26  30
ENDBRANCH  23  26
ENDBRANCH  21  22
BRANCH  21  32
ATOM     32  CB  THR A   9      31.266  25.502  15.852  0.00  0.00    +0.137 C 
ATOM     33  CG2 THR A   9      32.104  26.550  16.619  0.00  0.00    +0.034 C 
BRANCH  32  34
ATOM     34  OG1 THR A   9      30.655  24.564  16.754  0.00  0.00    -0.382 OA
ATOM     35  HG1 THR A   9      30.163  23.880  16.234  0.00  0.00    +0.210 HD
ENDBRANCH  32  34
ENDBRANCH  21  32
ENDBRANCH  19  21
ENDBRANCH  16  17
BRANCH  16  36
ATOM     36  CB  ASP A   8      28.060  24.857  11.501  0.00  0.00    +0.143 C 
BRANCH  36  37
ATOM     37  CG  ASP A   8      27.488  24.081  10.338  0.00  0.00    +0.367 C 
ATOM     38  OD2 ASP A   8      27.889  22.911  10.156  0.00  0.00    -0.246 OA
ATOM     39  OD1 ASP A   8      26.657  24.646   9.590  0.00  0.00    -0.246 OA
ENDBRANCH  36  37
ENDBRANCH  16  36
ENDBRANCH  14  16
ENDBRANCH  11  12
BRANCH  11  40
ATOM     40  CB  ASP A   7      24.121  22.138  11.639  0.00  0.00    +0.143 C 
BRANCH  40  41
ATOM     41  CG  ASP A   7      22.635  21.921  11.344  0.00  0.00    +0.367 C 
ATOM     42  OD2 ASP A   7      21.842  21.701  12.270  0.00  0.00    -0.246 OA
ATOM     43  OD1 ASP A   7      22.268  21.953  10.145  0.00  0.00    -0.246 OA
ENDBRANCH  40  41
ENDBRANCH  11  40
ENDBRANCH   9  11
ENDBRANCH   5   7
ENDBRANCH   2   5
BRANCH   1  44
ATOM     44  CA  GLY A   5      19.685  25.163  16.914  0.00  0.00    +0.176 C 
BRANCH  44  46
ATOM     45  C   THR A   4      20.782  23.840  18.657  0.00  0.00    +0.243 C 
ATOM     46  N   GLY A   5      20.308  25.012  18.234  0.00  0.00    -0.295 N 
ATOM     47  H   GLY A   5      20.382  25.842  18.856  0.00  0.00    +0.150 HD
ATOM     48  O   THR A   4      20.685  22.804  17.990  0.00  0.00    -0.273 OA
BRANCH  45  49
ATOM     49  CA  THR A   4      21.507  23.812  20.012  0.00  0.00    +0.176 C 
BRANCH  49  51
ATOM     50  C   ASP A   3      22.968  25.739  19.749  0.00  0.00    +0.241 C 
ATOM     51  N   THR A   4      21.999  25.127  20.426  0.00  0.00    -0.295 N 
ATOM     52  H   THR A   4      21.586  25.590  21.261  0.00  0.00    +0.150 HD
ATOM     53  O   ASP A   3      23.432  25.289  18.701  0.00  0.00    -0.273 OA
BRANCH  50  54
ATOM     54  CA  ASP A   3      23.458  27.072  20.312  0.00  0.00    +0.160 C 
BRANCH  54  57
ATOM     55  C   LEU A   2      24.525  27.410  22.458  0.00  0.00    +0.241 C 
ATOM     56  O   LEU A   2      23.504  27.828  22.992  0.00  0.00    -0.273 OA
ATOM     57  N   ASP A   3      24.548  26.872  21.238  0.00  0.00    -0.297 N 
ATOM     58  H   ASP A   3      25.366  26.298  20.948  0.00  0.00    +0.150 HD
BRANCH  55  59
ATOM     59  CA  LEU A   2      25.852  27.470  23.185  0.00  0.00    +0.149 C 
BRANCH  59  61
ATOM     60  C   LEU A   1      26.597  29.612  22.330  0.00  0.00    +0.238 C 
ATOM     61  N   LEU A   2      26.199  28.866  23.359  0.00  0.00    -0.297 N 
ATOM     62  H   LEU A   2      26.136  29.293  24.305  0.00  0.00    +0.150 HD
ATOM     63  O   LEU A   1      26.814  29.155  21.194  0.00  0.00    -0.274 OA
BRANCH  60  64
ATOM     64  CA  LEU A   1      26.781  31.091  22.615  0.00  0.00    +0.145 C 
BRANCH  64  65
ATOM     65  N   LEU A   1      28.122  31.489  22.236  0.00  0.00    -0.238 NA
ATOM     66  H   LEU A   1      28.304  31.708  21.236  0.00  0.00    +0.142 HD
ENDBRANCH  64  65
BRANCH  64  67
ATOM     67  CB  LEU A   1      25.780  31.896  21.794  0.00  0.00    +0.026 C 
BRANCH  67  68
ATOM     68  CG  LEU A   1      24.290  31.663  22.029  0.00  0.00    +0.002 C 
ATOM     69  CD2 LEU A   1      23.876  32.161  23.389  0.00  0.00    +0.000 C 
ATOM     70  CD1 LEU A   1      23.507  32.362  20.925  0.00  0.00    +0.000 C 
ENDBRANCH  67  68
ENDBRANCH  64  67
ENDBRANCH  60  64
ENDBRANCH  59  61
BRANCH  59  71
ATOM     71  CB  LEU A   2      25.773  26.751  24.537  0.00  0.00    +0.029 C 
BRANCH  71  72
ATOM     72  CG  LEU A   2      27.054  26.776  25.371  0.00  0.00    +0.002 C 
ATOM     73  CD2 LEU A   2      26.822  26.094  26.729  0.00  0.00    +0.000 C 
ATOM     74  CD1 LEU A   2      28.208  26.108  24.617  0.00  0.00    +0.000 C 
ENDBRANCH  71  72
ENDBRANCH  59  71
ENDBRANCH  55  59
ENDBRANCH  54  57
BRANCH  54  75
ATOM     75  CB  ASP A   3      23.943  28.023  19.206  0.00  0.00    +0.143 C 
BRANCH  75  76
ATOM     76  CG  ASP A   3      22.841  28.423  18.252  0.00  0.00    +0.367 C 
ATOM     77  OD2 ASP A   3      21.728  27.847  18.331  0.00  0.00    -0.246 OA
ATOM     78  OD1 ASP A   3      23.099  29.326  17.434  0.00  0.00    -0.246 OA
ENDBRANCH  75  76
ENDBRANCH  54  75
ENDBRANCH  50  54
ENDBRANCH  49  51
BRANCH  49  79
ATOM     79  CB  THR A   4      20.593  23.177  21.085  0.00  0.00    +0.137 C 
ATOM     80  CG2 THR A   4      21.375  22.960  22.389  0.00  0.00    +0.034 C 
BRANCH  79  81
ATOM     81  OG1 THR A   4      19.460  24.023  21.342  0.00  0.00    -0.382 OA
ATOM     82  HG1 THR A   4      18.943  24.142  20.506  0.00  0.00    +0.210 HD
ENDBRANCH  79  81
ENDBRANCH  49  79
ENDBRANCH  45  49
ENDBRANCH  44  46
ENDBRANCH   1  44
TORSDOF 35
REMARK  Name = ../refined-set-2016/2qi6/2qi6_pocket.pdb
REMARK  221 active torsions:
REMARK  status: ('A' for Active; 'I' for Inactive)
REMARK    1  A    between atoms: _1  and  _3
REMARK    2  A    between atoms: _3  and  _4
REMARK    3  A    between atoms: _3  and  _6
REMARK    4  A    between atoms: _6  and  _7
REMARK    5  A    between atoms: _7  and  _8
REMARK    6  A    between atoms: _8  and  _9
REMARK    7  A    between atoms: _18  and  _20
REMARK    8  A    between atoms: _20  and  _21
REMARK    9  A    between atoms: _20  and  _23
REMARK   10  A    between atoms: _23  and  _24
REMARK   11  A    between atoms: _27  and  _29
REMARK   12  A    between atoms: _29  and  _30
REMARK   13  A    between atoms: _29  and  _32
REMARK   14  A    between atoms: _32  and  _33
REMARK   15  A    between atoms: _36  and  _38
REMARK   16  A    between atoms: _38  and  _39
REMARK   17  A    between atoms: _38  and  _41
REMARK   18  A    between atoms: _41  and  _42
REMARK   19  A    between atoms: _45  and  _47
REMARK   20  A    between atoms: _47  and  _48
REMARK   21  A    between atoms: _47  and  _50
REMARK   22  A    between atoms: _50  and  _51
REMARK   23  A    between atoms: _54  and  _56
REMARK   24  A    between atoms: _56  and  _57
REMARK   25  A    between atoms: _59  and  _61
REMARK   26  A    between atoms: _61  and  _62
REMARK   27  A    between atoms: _65  and  _67
REMARK   28  A    between atoms: _67  and  _68
REMARK   29  A    between atoms: _67  and  _70
REMARK   30  A    between atoms: _70  and  _71
REMARK   31  A    between atoms: _74  and  _76
REMARK   32  A    between atoms: _76  and  _77
REMARK   33  A    between atoms: _76  and  _79
REMARK   34  A    between atoms: _79  and  _80
REMARK   35  A    between atoms: _83  and  _85
REMARK   36  A    between atoms: _85  and  _86
REMARK   37  A    between atoms: _85  and  _88
REMARK   38  A    between atoms: _88  and  _89
REMARK   39  A    between atoms: _92  and  _94
REMARK   40  A    between atoms: _94  and  _95
REMARK   41  A    between atoms: _94  and  _97
REMARK   42  A    between atoms: _100  and  _102
REMARK   43  A    between atoms: _102  and  _103
REMARK   44  A    between atoms: _102  and  _105
REMARK   45  A    between atoms: _105  and  _106
REMARK   46  A    between atoms: _106  and  _107
REMARK   47  A    between atoms: _107  and  _108
REMARK   48  A    between atoms: _108  and  _109
REMARK   49  A    between atoms: _113  and  _115
REMARK   50  A    between atoms: _115  and  _116
REMARK   51  A    between atoms: _115  and  _118
REMARK   52  A    between atoms: _118  and  _119
REMARK   53  A    between atoms: _119  and  _120
REMARK   54  A    between atoms: _122  and  _124
REMARK   55  A    between atoms: _124  and  _125
REMARK   56  A    between atoms: _124  and  _127
REMARK   57  A    between atoms: _127  and  _128
REMARK   58  A    between atoms: _131  and  _133
REMARK   59  A    between atoms: _133  and  _134
REMARK   60  A    between atoms: _136  and  _138
REMARK   61  A    between atoms: _138  and  _139
REMARK   62  A    between atoms: _141  and  _143
REMARK   63  A    between atoms: _143  and  _144
REMARK   64  A    between atoms: _143  and  _146
REMARK   65  A    between atoms: _146  and  _147
REMARK   66  A    between atoms: _150  and  _152
REMARK   67  A    between atoms: _152  and  _153
REMARK   68  A    between atoms: _155  and  _157
REMARK   69  A    between atoms: _157  and  _158
REMARK   70  A    between atoms: _160  and  _162
REMARK   71  A    between atoms: _162  and  _163
REMARK   72  A    between atoms: _162  and  _165
REMARK   73  A    between atoms: _165  and  _166
REMARK   74  A    between atoms: _169  and  _171
REMARK   75  A    between atoms: _171  and  _172
REMARK   76  A    between atoms: _171  and  _174
REMARK   77  A    between atoms: _177  and  _179
REMARK   78  A    between atoms: _179  and  _180
REMARK   79  A    between atoms: _179  and  _182
REMARK   80  A    between atoms: _182  and  _183
REMARK   81  A    between atoms: _186  and  _188
REMARK   82  A    between atoms: _188  and  _189
REMARK   83  A    between atoms: _188  and  _191
REMARK   84  A    between atoms: _191  and  _192
REMARK   85  A    between atoms: _196  and  _197
REMARK   86  A    between atoms: _202  and  _204
REMARK   87  A    between atoms: _204  and  _205
REMARK   88  A    between atoms: _204  and  _207
REMARK   89  A    between atoms: _210  and  _212
REMARK   90  A    between atoms: _212  and  _213
REMARK   91  A    between atoms: _212  and  _215
REMARK   92  A    between atoms: _215  and  _216
REMARK   93  A    between atoms: _221  and  _223
REMARK   94  A    between atoms: _223  and  _224
REMARK   95  A    between atoms: _223  and  _226
REMARK   96  A    between atoms: _226  and  _227
REMARK   97  A    between atoms: _230  and  _232
REMARK   98  A    between atoms: _232  and  _233
REMARK   99  A    between atoms: _232  and  _235
REMARK  100  A    between atoms: _235  and  _236
REMARK  101  A    between atoms: _239  and  _241
REMARK  102  A    between atoms: _241  and  _242
REMARK  103  A    between atoms: _244  and  _246
REMARK  104  A    between atoms: _246  and  _247
REMARK  105  A    between atoms: _246  and  _249
REMARK  106  A    between atoms: _249  and  _250
REMARK  107  A    between atoms: _250  and  _251
REMARK  108  A    between atoms: _251  and  _252
REMARK  109  A    between atoms: _261  and  _263
REMARK  110  A    between atoms: _263  and  _264
REMARK  111  A    between atoms: _263  and  _266
REMARK  112  A    between atoms: _266  and  _267
REMARK  113  A    between atoms: _267  and  _268
REMARK  114  A    between atoms: _268  and  _269
REMARK  115  A    between atoms: _278  and  _280
REMARK  116  A    between atoms: _280  and  _281
REMARK  117  A    between atoms: _280  and  _283
REMARK  118  A    between atoms: _283  and  _284
REMARK  119  A    between atoms: _287  and  _289
REMARK  120  A    between atoms: _289  and  _290
REMARK  121  A    between atoms: _289  and  _292
REMARK  122  A    between atoms: _292  and  _293
REMARK  123  A    between atoms: _296  and  _298
REMARK  124  A    between atoms: _298  and  _299
REMARK  125  A    between atoms: _298  and  _301
REMARK  126  A    between atoms: _301  and  _302
REMARK  127  A    between atoms: _305  and  _307
REMARK  128  A    between atoms: _307  and  _308
REMARK  129  A    between atoms: _307  and  _310
REMARK  130  A    between atoms: _310  and  _311
REMARK  131  A    between atoms: _314  and  _316
REMARK  132  A    between atoms: _316  and  _317
REMARK  133  A    between atoms: _319  and  _321
REMARK  134  A    between atoms: _321  and  _322
REMARK  135  A    between atoms: _325  and  _327
REMARK  136  A    between atoms: _327  and  _328
REMARK  137  A    between atoms: _327  and  _330
REMARK  138  A    between atoms: _330  and  _331
REMARK  139  A    between atoms: _334  and  _336
REMARK  140  A    between atoms: _336  and  _337
REMARK  141  A    between atoms: _336  and  _339
REMARK  142  A    between atoms: _339  and  _340
REMARK  143  A    between atoms: _343  and  _345
REMARK  144  A    between atoms: _345  and  _346
REMARK  145  A    between atoms: _345  and  _348
REMARK  146  A    between atoms: _348  and  _349
REMARK  147  A    between atoms: _352  and  _354
REMARK  148  A    between atoms: _354  and  _355
REMARK  149  A    between atoms: _354  and  _357
REMARK  150  A    between atoms: _360  and  _362
REMARK  151  A    between atoms: _362  and  _363
REMARK  152  A    between atoms: _362  and  _365
REMARK  153  A    between atoms: _365  and  _366
REMARK  154  A    between atoms: _366  and  _367
REMARK  155  A    between atoms: _367  and  _368
REMARK  156  A    between atoms: _368  and  _369
REMARK  157  A    between atoms: _373  and  _375
REMARK  158  A    between atoms: _375  and  _376
REMARK  159  A    between atoms: _375  and  _378
REMARK  160  A    between atoms: _378  and  _379
REMARK  161  A    between atoms: _379  and  _380
REMARK  162  A    between atoms: _382  and  _384
REMARK  163  A    between atoms: _384  and  _385
REMARK  164  A    between atoms: _384  and  _387
REMARK  165  A    between atoms: _387  and  _388
REMARK  166  A    between atoms: _391  and  _393
REMARK  167  A    between atoms: _393  and  _394
REMARK  168  A    between atoms: _396  and  _398
REMARK  169  A    between atoms: _398  and  _399
REMARK  170  A    between atoms: _401  and  _403
REMARK  171  A    between atoms: _403  and  _404
REMARK  172  A    between atoms: _403  and  _406
REMARK  173  A    between atoms: _406  and  _407
REMARK  174  A    between atoms: _410  and  _412
REMARK  175  A    between atoms: _412  and  _413
REMARK  176  A    between atoms: _415  and  _417
REMARK  177  A    between atoms: _417  and  _418
REMARK  178  A    between atoms: _420  and  _422
REMARK  179  A    between atoms: _422  and  _423
REMARK  180  A    between atoms: _422  and  _425
REMARK  181  A    between atoms: _425  and  _426
REMARK  182  A    between atoms: _432  and  _434
REMARK  183  A    between atoms: _434  and  _435
REMARK  184  A    between atoms: _434  and  _437
REMARK  185  A    between atoms: _437  and  _438
REMARK  186  A    between atoms: _441  and  _443
REMARK  187  A    between atoms: _443  and  _444
REMARK  188  A    between atoms: _443  and  _446
REMARK  189  A    between atoms: _446  and  _447
REMARK  190  A    between atoms: _450  and  _452
REMARK  191  A    between atoms: _452  and  _453
REMARK  192  A    between atoms: _452  and  _455
REMARK  193  A    between atoms: _455  and  _456
REMARK  194  A    between atoms: _460  and  _461
REMARK  195  A    between atoms: _466  and  _468
REMARK  196  A    between atoms: _468  and  _469
REMARK  197  A    between atoms: _468  and  _471
REMARK  198  A    between atoms: _474  and  _476
REMARK  199  A    between atoms: _476  and  _477
REMARK  200  A    between atoms: _476  and  _479
REMARK  201  A    between atoms: _479  and  _480
REMARK  202  A    between atoms: _485  and  _487
REMARK  203  A    between atoms: _487  and  _488
REMARK  204  A    between atoms: _487  and  _490
REMARK  205  A    between atoms: _490  and  _491
REMARK  206  A    between atoms: _494  and  _496
REMARK  207  A    between atoms: _496  and  _497
REMARK  208  A    between atoms: _496  and  _499
REMARK  209  A    between atoms: _499  and  _500
REMARK  210  A    between atoms: _503  and  _505
REMARK  211  A    between atoms: _505  and  _506
REMARK  212  A    between atoms: _508  and  _510
REMARK  213  A    between atoms: _510  and  _511
REMARK  214  A    between atoms: _510  and  _513
REMARK  215  A    between atoms: _513  and  _514
REMARK  216  A    between atoms: _514  and  _515
REMARK  217  A    between atoms: _515  and  _516
REMARK  218  A    between atoms: _525  and  _527
REMARK  219  A    between atoms: _527  and  _528
REMARK  220  A    between atoms: _527  and  _530
REMARK  221  A    between atoms: _530  and  _531
REMARK                            x       y       z     vdW  Elec       q    Type
REMARK                         _______ _______ _______ _____ _____    ______ ____
ROOT
ATOM      1  C   ILE A   3      24.512  29.037   5.269  0.00  0.00    +0.241 C 
ATOM      2  N   GLY A   4      23.384  28.455   5.680  0.00  0.00    -0.295 N 
ATOM      3  H   GLY A   4      23.409  27.448   5.937  0.00  0.00    +0.150 HD
ATOM      4  O   ILE A   3      24.611  30.233   4.959  0.00  0.00    -0.273 OA
ENDROOT
BRANCH   2   5
ATOM      5  CA  GLY A   4      22.110  29.175   5.785  0.00  0.00    +0.176 C 
BRANCH   5   6
ATOM      6  C   GLY A   4      21.609  29.331   7.212  0.00  0.00    +0.243 C 
ATOM      7  O   GLY A   4      21.667  28.403   8.017  0.00  0.00    -0.273 OA
ATOM      8  N   GLY A   5      21.110  30.526   7.515  0.00  0.00    -0.295 N 
ATOM      9  H   GLY A   5      21.165  31.281   6.802  0.00  0.00    +0.150 HD
BRANCH   8  10
ATOM     10  CA  GLY A   5      20.492  30.827   8.793  0.00  0.00    +0.176 C 
BRANCH  10  11
ATOM     11  C   GLY A   5      19.102  31.397   8.585  0.00  0.00    +0.243 C 
ATOM     12  N   ILE A   6      18.606  32.077   9.607  0.00  0.00    -0.297 N 
ATOM     13  H   ILE A   6      19.192  32.247  10.449  0.00  0.00    +0.150 HD
ATOM     14  O   GLY A   5      18.489  31.257   7.512  0.00  0.00    -0.273 OA
BRANCH  12  15
ATOM     15  CA  ILE A   6      17.252  32.585   9.558  0.00  0.00    +0.149 C 
BRANCH  15  16
ATOM     16  C   ILE A   6      17.066  33.627   8.441  0.00  0.00    +0.241 C 
ATOM     17  N   GLY A   7      18.121  34.386   8.145  0.00  0.00    -0.295 N 
ATOM     18  H   GLY A   7      19.030  34.175   8.604  0.00  0.00    +0.150 HD
ATOM     19  O   ILE A   6      15.984  33.724   7.862  0.00  0.00    -0.273 OA
BRANCH  17  20
ATOM     20  CA  GLY A   7      18.055  35.506   7.200  0.00  0.00    +0.176 C 
BRANCH  20  21
ATOM     21  C   GLY A   7      18.554  35.250   5.789  0.00  0.00    +0.243 C 
ATOM     22  N   GLY A   8      18.985  34.022   5.515  0.00  0.00    -0.296 N 
ATOM     23  H   GLY A   8      18.918  33.291   6.252  0.00  0.00    +0.150 HD
ATOM     24  O   GLY A   7      18.514  36.150   4.943  0.00  0.00    -0.273 OA
BRANCH  22  25
ATOM     25  CA  GLY A   8      19.543  33.668   4.231  0.00  0.00    +0.163 C 
BRANCH  25  26
ATOM     26  C   GLY A   8      20.896  33.005   4.380  0.00  0.00    +0.229 C 
ATOM     27  O   GLY A   8      21.237  32.492   5.448  0.00  0.00    -0.286 OA
ENDBRANCH  25  26
ENDBRANCH  22  25
ENDBRANCH  20  21
ENDBRANCH  17  20
ENDBRANCH  15  16
BRANCH  15  28
ATOM     28  CB  ILE A   6      16.814  33.147  10.932  0.00  0.00    +0.027 C 
ATOM     29  CG2 ILE A   6      17.351  34.559  11.121  0.00  0.00    +0.002 C 
BRANCH  28  30
ATOM     30  CG1 ILE A   6      15.285  33.055  11.061  0.00  0.00    +0.002 C 
ATOM     31  CD1 ILE A   6      14.749  33.321  12.461  0.00  0.00    +0.000 C 
ENDBRANCH  28  30
ENDBRANCH  15  28
ENDBRANCH  12  15
ENDBRANCH  10  11
ENDBRANCH   8  10
ENDBRANCH   5   6
ENDBRANCH   2   5
BRANCH   1  32
ATOM     32  CA  ILE A   3      25.738  28.136   5.220  0.00  0.00    +0.149 C 
BRANCH  32  34
ATOM     33  C   MET A   2      27.262  27.873   3.334  0.00  0.00    +0.241 C 
ATOM     34  N   ILE A   3      26.702  28.658   4.251  0.00  0.00    -0.297 N 
ATOM     35  H   ILE A   3      26.955  29.666   4.280  0.00  0.00    +0.150 HD
ATOM     36  O   MET A   2      27.076  26.664   3.287  0.00  0.00    -0.273 OA
BRANCH  33  37
ATOM     37  CA  MET A   2      28.200  28.541   2.344  0.00  0.00    +0.149 C 
BRANCH  37  40
ATOM     38  C   LYS A   1      30.604  28.140   2.405  0.00  0.00    +0.238 C 
ATOM     39  O   LYS A   1      30.848  29.319   2.674  0.00  0.00    -0.274 OA
ATOM     40  N   MET A   2      29.381  27.699   2.116  0.00  0.00    -0.297 N 
ATOM     41  H   MET A   2      29.261  26.744   1.723  0.00  0.00    +0.150 HD
BRANCH  38  42
ATOM     42  CA  LYS A   1      31.737  27.123   2.343  0.00  0.00    +0.145 C 
BRANCH  42  43
ATOM     43  N   LYS A   1      32.972  27.848   2.046  0.00  0.00    -0.238 NA
ATOM     44  H   LYS A   1      33.116  28.780   2.484  0.00  0.00    +0.142 HD
ENDBRANCH  42  43
BRANCH  42  45
ATOM     45  CB  LYS A   1      31.864  26.392   3.686  0.00  0.00    +0.026 C 
BRANCH  45  46
ATOM     46  CG  LYS A   1      30.746  25.413   4.057  0.00  0.00    -0.000 C 
BRANCH  46  47
ATOM     47  CD  LYS A   1      30.737  25.149   5.566  0.00  0.00    -0.024 C 
BRANCH  47  48
ATOM     48  CE  LYS A   1      30.339  23.734   5.963  0.00  0.00    -0.086 C 
BRANCH  48  49
ATOM     49  NZ  LYS A   1      29.211  23.129   5.206  0.00  0.00    +0.380 N 
ATOM     50  HZ1 LYS A   1      29.031  22.169   5.563  0.00  0.00    -0.089 HD
ATOM     51  HZ2 LYS A   1      28.359  23.712   5.331  0.00  0.00    -0.089 HD
ATOM     52  HZ3 LYS A   1      29.457  23.085   4.196  0.00  0.00    -0.089 HD
ENDBRANCH  48  49
ENDBRANCH  47  48
ENDBRANCH  46  47
ENDBRANCH  45  46
ENDBRANCH  42  45
ENDBRANCH  38  42
ENDBRANCH  37  40
BRANCH  37  53
ATOM     53  CB  MET A   2      27.476  28.825   1.034  0.00  0.00    +0.041 C 
BRANCH  53  54
ATOM     54  CG  MET A   2      28.244  29.739   0.110  0.00  0.00    +0.060 C 
BRANCH  54  55
ATOM     55  SD  MET A   2      27.362  29.969  -1.434  0.00  0.00    -0.139 S 
ATOM     56  CE  MET A   2      25.977  30.974  -0.905  0.00  0.00    +0.069 C 
ENDBRANCH  54  55
ENDBRANCH  53  54
ENDBRANCH  37  53
ENDBRANCH  33  37
ENDBRANCH  32  34
BRANCH  32  57
ATOM     57  CB  ILE A   3      26.326  28.019   6.638  0.00  0.00    +0.027 C 
ATOM     58  CG2 ILE A   3      27.476  27.020   6.654  0.00  0.00    +0.002 C 
BRANCH  57  59
ATOM     59  CG1 ILE A   3      26.764  29.388   7.175  0.00  0.00    +0.002 C 
ATOM     60  CD1 ILE A   3      27.164  29.368   8.642  0.00  0.00    +0.000 C 
ENDBRANCH  57  59
ENDBRANCH  32  57
ENDBRANCH   1  32
TORSDOF 28
REMARK  Name = ../refined-set-2016/2qi6/2qi6_pocket.pdb
REMARK  221 active torsions:
REMARK  status: ('A' for Active; 'I' for Inactive)
REMARK    1  A    between atoms: _1  and  _3
REMARK    2  A    between atoms: _3  and  _4
REMARK    3  A    between atoms: _3  and  _6
REMARK    4  A    between atoms: _6  and  _7
REMARK    5  A    between atoms: _7  and  _8
REMARK    6  A    between atoms: _8  and  _9
REMARK    7  A    between atoms: _18  and  _20
REMARK    8  A    between atoms: _20  and  _21
REMARK    9  A    between atoms: _20  and  _23
REMARK   10  A    between atoms: _23  and  _24
REMARK   11  A    between atoms: _27  and  _29
REMARK   12  A    between atoms: _29  and  _30
REMARK   13  A    between atoms: _29  and  _32
REMARK   14  A    between atoms: _32  and  _33
REMARK   15  A    between atoms: _36  and  _38
REMARK   16  A    between atoms: _38  and  _39
REMARK   17  A    between atoms: _38  and  _41
REMARK   18  A    between atoms: _41  and  _42
REMARK   19  A    between atoms: _45  and  _47
REMARK   20  A    between atoms: _47  and  _48
REMARK   21  A    between atoms: _47  and  _50
REMARK   22  A    between atoms: _50  and  _51
REMARK   23  A    between atoms: _54  and  _56
REMARK   24  A    between atoms: _56  and  _57
REMARK   25  A    between atoms: _59  and  _61
REMARK   26  A    between atoms: _61  and  _62
REMARK   27  A    between atoms: _65  and  _67
REMARK   28  A    between atoms: _67  and  _68
REMARK   29  A    between atoms: _67  and  _70
REMARK   30  A    between atoms: _70  and  _71
REMARK   31  A    between atoms: _74  and  _76
REMARK   32  A    between atoms: _76  and  _77
REMARK   33  A    between atoms: _76  and  _79
REMARK   34  A    between atoms: _79  and  _80
REMARK   35  A    between atoms: _83  and  _85
REMARK   36  A    between atoms: _85  and  _86
REMARK   37  A    between atoms: _85  and  _88
REMARK   38  A    between atoms: _88  and  _89
REMARK   39  A    between atoms: _92  and  _94
REMARK   40  A    between atoms: _94  and  _95
REMARK   41  A    between atoms: _94  and  _97
REMARK   42  A    between atoms: _100  and  _102
REMARK   43  A    between atoms: _102  and  _103
REMARK   44  A    between atoms: _102  and  _105
REMARK   45  A    between atoms: _105  and  _106
REMARK   46  A    between atoms: _106  and  _107
REMARK   47  A    between atoms: _107  and  _108
REMARK   48  A    between atoms: _108  and  _109
REMARK   49  A    between atoms: _113  and  _115
REMARK   50  A    between atoms: _115  and  _116
REMARK   51  A    between atoms: _115  and  _118
REMARK   52  A    between atoms: _118  and  _119
REMARK   53  A    between atoms: _119  and  _120
REMARK   54  A    between atoms: _122  and  _124
REMARK   55  A    between atoms: _124  and  _125
REMARK   56  A    between atoms: _124  and  _127
REMARK   57  A    between atoms: _127  and  _128
REMARK   58  A    between atoms: _131  and  _133
REMARK   59  A    between atoms: _133  and  _134
REMARK   60  A    between atoms: _136  and  _138
REMARK   61  A    between atoms: _138  and  _139
REMARK   62  A    between atoms: _141  and  _143
REMARK   63  A    between atoms: _143  and  _144
REMARK   64  A    between atoms: _143  and  _146
REMARK   65  A    between atoms: _146  and  _147
REMARK   66  A    between atoms: _150  and  _152
REMARK   67  A    between atoms: _152  and  _153
REMARK   68  A    between atoms: _155  and  _157
REMARK   69  A    between atoms: _157  and  _158
REMARK   70  A    between atoms: _160  and  _162
REMARK   71  A    between atoms: _162  and  _163
REMARK   72  A    between atoms: _162  and  _165
REMARK   73  A    between atoms: _165  and  _166
REMARK   74  A    between atoms: _169  and  _171
REMARK   75  A    between atoms: _171  and  _172
REMARK   76  A    between atoms: _171  and  _174
REMARK   77  A    between atoms: _177  and  _179
REMARK   78  A    between atoms: _179  and  _180
REMARK   79  A    between atoms: _179  and  _182
REMARK   80  A    between atoms: _182  and  _183
REMARK   81  A    between atoms: _186  and  _188
REMARK   82  A    between atoms: _188  and  _189
REMARK   83  A    between atoms: _188  and  _191
REMARK   84  A    between atoms: _191  and  _192
REMARK   85  A    between atoms: _196  and  _197
REMARK   86  A    between atoms: _202  and  _204
REMARK   87  A    between atoms: _204  and  _205
REMARK   88  A    between atoms: _204  and  _207
REMARK   89  A    between atoms: _210  and  _212
REMARK   90  A    between atoms: _212  and  _213
REMARK   91  A    between atoms: _212  and  _215
REMARK   92  A    between atoms: _215  and  _216
REMARK   93  A    between atoms: _221  and  _223
REMARK   94  A    between atoms: _223  and  _224
REMARK   95  A    between atoms: _223  and  _226
REMARK   96  A    between atoms: _226  and  _227
REMARK   97  A    between atoms: _230  and  _232
REMARK   98  A    between atoms: _232  and  _233
REMARK   99  A    between atoms: _232  and  _235
REMARK  100  A    between atoms: _235  and  _236
REMARK  101  A    between atoms: _239  and  _241
REMARK  102  A    between atoms: _241  and  _242
REMARK  103  A    between atoms: _244  and  _246
REMARK  104  A    between atoms: _246  and  _247
REMARK  105  A    between atoms: _246  and  _249
REMARK  106  A    between atoms: _249  and  _250
REMARK  107  A    between atoms: _250  and  _251
REMARK  108  A    between atoms: _251  and  _252
REMARK  109  A    between atoms: _261  and  _263
REMARK  110  A    between atoms: _263  and  _264
REMARK  111  A    between atoms: _263  and  _266
REMARK  112  A    between atoms: _266  and  _267
REMARK  113  A    between atoms: _267  and  _268
REMARK  114  A    between atoms: _268  and  _269
REMARK  115  A    between atoms: _278  and  _280
REMARK  116  A    between atoms: _280  and  _281
REMARK  117  A    between atoms: _280  and  _283
REMARK  118  A    between atoms: _283  and  _284
REMARK  119  A    between atoms: _287  and  _289
REMARK  120  A    between atoms: _289  and  _290
REMARK  121  A    between atoms: _289  and  _292
REMARK  122  A    between atoms: _292  and  _293
REMARK  123  A    between atoms: _296  and  _298
REMARK  124  A    between atoms: _298  and  _299
REMARK  125  A    between atoms: _298  and  _301
REMARK  126  A    between atoms: _301  and  _302
REMARK  127  A    between atoms: _305  and  _307
REMARK  128  A    between atoms: _307  and  _308
REMARK  129  A    between atoms: _307  and  _310
REMARK  130  A    between atoms: _310  and  _311
REMARK  131  A    between atoms: _314  and  _316
REMARK  132  A    between atoms: _316  and  _317
REMARK  133  A    between atoms: _319  and  _321
REMARK  134  A    between atoms: _321  and  _322
REMARK  135  A    between atoms: _325  and  _327
REMARK  136  A    between atoms: _327  and  _328
REMARK  137  A    between atoms: _327  and  _330
REMARK  138  A    between atoms: _330  and  _331
REMARK  139  A    between atoms: _334  and  _336
REMARK  140  A    between atoms: _336  and  _337
REMARK  141  A    between atoms: _336  and  _339
REMARK  142  A    between atoms: _339  and  _340
REMARK  143  A    between atoms: _343  and  _345
REMARK  144  A    between atoms: _345  and  _346
REMARK  145  A    between atoms: _345  and  _348
REMARK  146  A    between atoms: _348  and  _349
REMARK  147  A    between atoms: _352  and  _354
REMARK  148  A    between atoms: _354  and  _355
REMARK  149  A    between atoms: _354  and  _357
REMARK  150  A    between atoms: _360  and  _362
REMARK  151  A    between atoms: _362  and  _363
REMARK  152  A    between atoms: _362  and  _365
REMARK  153  A    between atoms: _365  and  _366
REMARK  154  A    between atoms: _366  and  _367
REMARK  155  A    between atoms: _367  and  _368
REMARK  156  A    between atoms: _368  and  _369
REMARK  157  A    between atoms: _373  and  _375
REMARK  158  A    between atoms: _375  and  _376
REMARK  159  A    between atoms: _375  and  _378
REMARK  160  A    between atoms: _378  and  _379
REMARK  161  A    between atoms: _379  and  _380
REMARK  162  A    between atoms: _382  and  _384
REMARK  163  A    between atoms: _384  and  _385
REMARK  164  A    between atoms: _384  and  _387
REMARK  165  A    between atoms: _387  and  _388
REMARK  166  A    between atoms: _391  and  _393
REMARK  167  A    between atoms: _393  and  _394
REMARK  168  A    between atoms: _396  and  _398
REMARK  169  A    between atoms: _398  and  _399
REMARK  170  A    between atoms: _401  and  _403
REMARK  171  A    between atoms: _403  and  _404
REMARK  172  A    between atoms: _403  and  _406
REMARK  173  A    between atoms: _406  and  _407
REMARK  174  A    between atoms: _410  and  _412
REMARK  175  A    between atoms: _412  and  _413
REMARK  176  A    between atoms: _415  and  _417
REMARK  177  A    between atoms: _417  and  _418
REMARK  178  A    between atoms: _420  and  _422
REMARK  179  A    between atoms: _422  and  _423
REMARK  180  A    between atoms: _422  and  _425
REMARK  181  A    between atoms: _425  and  _426
REMARK  182  A    between atoms: _432  and  _434
REMARK  183  A    between atoms: _434  and  _435
REMARK  184  A    between atoms: _434  and  _437
REMARK  185  A    between atoms: _437  and  _438
REMARK  186  A    between atoms: _441  and  _443
REMARK  187  A    between atoms: _443  and  _444
REMARK  188  A    between atoms: _443  and  _446
REMARK  189  A    between atoms: _446  and  _447
REMARK  190  A    between atoms: _450  and  _452
REMARK  191  A    between atoms: _452  and  _453
REMARK  192  A    between atoms: _452  and  _455
REMARK  193  A    between atoms: _455  and  _456
REMARK  194  A    between atoms: _460  and  _461
REMARK  195  A    between atoms: _466  and  _468
REMARK  196  A    between atoms: _468  and  _469
REMARK  197  A    between atoms: _468  and  _471
REMARK  198  A    between atoms: _474  and  _476
REMARK  199  A    between atoms: _476  and  _477
REMARK  200  A    between atoms: _476  and  _479
REMARK  201  A    between atoms: _479  and  _480
REMARK  202  A    between atoms: _485  and  _487
REMARK  203  A    between atoms: _487  and  _488
REMARK  204  A    between atoms: _487  and  _490
REMARK  205  A    between atoms: _490  and  _491
REMARK  206  A    between atoms: _494  and  _496
REMARK  207  A    between atoms: _496  and  _497
REMARK  208  A    between atoms: _496  and  _499
REMARK  209  A    between atoms: _499  and  _500
REMARK  210  A    between atoms: _503  and  _505
REMARK  211  A    between atoms: _505  and  _506
REMARK  212  A    between atoms: _508  and  _510
REMARK  213  A    between atoms: _510  and  _511
REMARK  214  A    between atoms: _510  and  _513
REMARK  215  A    between atoms: _513  and  _514
REMARK  216  A    between atoms: _514  and  _515
REMARK  217  A    between atoms: _515  and  _516
REMARK  218  A    between atoms: _525  and  _527
REMARK  219  A    between atoms: _527  and  _528
REMARK  220  A    between atoms: _527  and  _530
REMARK  221  A    between atoms: _530  and  _531
REMARK                            x       y       z     vdW  Elec       q    Type
REMARK                         _______ _______ _______ _____ _____    ______ ____
ROOT
ATOM      1  CA  ILE A   1      26.439  33.638   3.927  0.00  0.00    +0.133 C 
ENDROOT
BRANCH   1   2
ATOM      2  N   ILE A   1      25.202  32.861   3.865  0.00  0.00    -0.239 NA
ATOM      3  H   ILE A   1      25.184  31.912   4.290  0.00  0.00    +0.142 HD
ENDBRANCH   1   2
BRANCH   1   4
ATOM      4  CB  ILE A   1      26.729  34.175   5.361  0.00  0.00    +0.023 C 
ATOM      5  CG2 ILE A   1      25.649  35.160   5.792  0.00  0.00    +0.002 C 
BRANCH   4   6
ATOM      6  CG1 ILE A   1      26.866  33.018   6.362  0.00  0.00    +0.002 C 
ATOM      7  CD1 ILE A   1      27.437  33.408   7.702  0.00  0.00    +0.000 C 
ENDBRANCH   4   6
ENDBRANCH   1   4
BRANCH   1   8
ATOM      8  C   ILE A   1      27.605  32.758   3.488  0.00  0.00    +0.224 C 
ATOM      9  O   ILE A   1      27.523  31.531   3.506  0.00  0.00    -0.287 OA
ENDBRANCH   1   8
TORSDOF 4
REMARK  Name = ../refined-set-2016/2qi6/2qi6_pocket.pdb
REMARK  221 active torsions:
REMARK  status: ('A' for Active; 'I' for Inactive)
REMARK    1  A    between atoms: _1  and  _3
REMARK    2  A    between atoms: _3  and  _4
REMARK    3  A    between atoms: _3  and  _6
REMARK    4  A    between atoms: _6  and  _7
REMARK    5  A    between atoms: _7  and  _8
REMARK    6  A    between atoms: _8  and  _9
REMARK    7  A    between atoms: _18  and  _20
REMARK    8  A    between atoms: _20  and  _21
REMARK    9  A    between atoms: _20  and  _23
REMARK   10  A    between atoms: _23  and  _24
REMARK   11  A    between atoms: _27  and  _29
REMARK   12  A    between atoms: _29  and  _30
REMARK   13  A    between atoms: _29  and  _32
REMARK   14  A    between atoms: _32  and  _33
REMARK   15  A    between atoms: _36  and  _38
REMARK   16  A    between atoms: _38  and  _39
REMARK   17  A    between atoms: _38  and  _41
REMARK   18  A    between atoms: _41  and  _42
REMARK   19  A    between atoms: _45  and  _47
REMARK   20  A    between atoms: _47  and  _48
REMARK   21  A    between atoms: _47  and  _50
REMARK   22  A    between atoms: _50  and  _51
REMARK   23  A    between atoms: _54  and  _56
REMARK   24  A    between atoms: _56  and  _57
REMARK   25  A    between atoms: _59  and  _61
REMARK   26  A    between atoms: _61  and  _62
REMARK   27  A    between atoms: _65  and  _67
REMARK   28  A    between atoms: _67  and  _68
REMARK   29  A    between atoms: _67  and  _70
REMARK   30  A    between atoms: _70  and  _71
REMARK   31  A    between atoms: _74  and  _76
REMARK   32  A    between atoms: _76  and  _77
REMARK   33  A    between atoms: _76  and  _79
REMARK   34  A    between atoms: _79  and  _80
REMARK   35  A    between atoms: _83  and  _85
REMARK   36  A    between atoms: _85  and  _86
REMARK   37  A    between atoms: _85  and  _88
REMARK   38  A    between atoms: _88  and  _89
REMARK   39  A    between atoms: _92  and  _94
REMARK   40  A    between atoms: _94  and  _95
REMARK   41  A    between atoms: _94  and  _97
REMARK   42  A    between atoms: _100  and  _102
REMARK   43  A    between atoms: _102  and  _103
REMARK   44  A    between atoms: _102  and  _105
REMARK   45  A    between atoms: _105  and  _106
REMARK   46  A    between atoms: _106  and  _107
REMARK   47  A    between atoms: _107  and  _108
REMARK   48  A    between atoms: _108  and  _109
REMARK   49  A    between atoms: _113  and  _115
REMARK   50  A    between atoms: _115  and  _116
REMARK   51  A    between atoms: _115  and  _118
REMARK   52  A    between atoms: _118  and  _119
REMARK   53  A    between atoms: _119  and  _120
REMARK   54  A    between atoms: _122  and  _124
REMARK   55  A    between atoms: _124  and  _125
REMARK   56  A    between atoms: _124  and  _127
REMARK   57  A    between atoms: _127  and  _128
REMARK   58  A    between atoms: _131  and  _133
REMARK   59  A    between atoms: _133  and  _134
REMARK   60  A    between atoms: _136  and  _138
REMARK   61  A    between atoms: _138  and  _139
REMARK   62  A    between atoms: _141  and  _143
REMARK   63  A    between atoms: _143  and  _144
REMARK   64  A    between atoms: _143  and  _146
REMARK   65  A    between atoms: _146  and  _147
REMARK   66  A    between atoms: _150  and  _152
REMARK   67  A    between atoms: _152  and  _153
REMARK   68  A    between atoms: _155  and  _157
REMARK   69  A    between atoms: _157  and  _158
REMARK   70  A    between atoms: _160  and  _162
REMARK   71  A    between atoms: _162  and  _163
REMARK   72  A    between atoms: _162  and  _165
REMARK   73  A    between atoms: _165  and  _166
REMARK   74  A    between atoms: _169  and  _171
REMARK   75  A    between atoms: _171  and  _172
REMARK   76  A    between atoms: _171  and  _174
REMARK   77  A    between atoms: _177  and  _179
REMARK   78  A    between atoms: _179  and  _180
REMARK   79  A    between atoms: _179  and  _182
REMARK   80  A    between atoms: _182  and  _183
REMARK   81  A    between atoms: _186  and  _188
REMARK   82  A    between atoms: _188  and  _189
REMARK   83  A    between atoms: _188  and  _191
REMARK   84  A    between atoms: _191  and  _192
REMARK   85  A    between atoms: _196  and  _197
REMARK   86  A    between atoms: _202  and  _204
REMARK   87  A    between atoms: _204  and  _205
REMARK   88  A    between atoms: _204  and  _207
REMARK   89  A    between atoms: _210  and  _212
REMARK   90  A    between atoms: _212  and  _213
REMARK   91  A    between atoms: _212  and  _215
REMARK   92  A    between atoms: _215  and  _216
REMARK   93  A    between atoms: _221  and  _223
REMARK   94  A    between atoms: _223  and  _224
REMARK   95  A    between atoms: _223  and  _226
REMARK   96  A    between atoms: _226  and  _227
REMARK   97  A    between atoms: _230  and  _232
REMARK   98  A    between atoms: _232  and  _233
REMARK   99  A    between atoms: _232  and  _235
REMARK  100  A    between atoms: _235  and  _236
REMARK  101  A    between atoms: _239  and  _241
REMARK  102  A    between atoms: _241  and  _242
REMARK  103  A    between atoms: _244  and  _246
REMARK  104  A    between atoms: _246  and  _247
REMARK  105  A    between atoms: _246  and  _249
REMARK  106  A    between atoms: _249  and  _250
REMARK  107  A    between atoms: _250  and  _251
REMARK  108  A    between atoms: _251  and  _252
REMARK  109  A    between atoms: _261  and  _263
REMARK  110  A    between atoms: _263  and  _264
REMARK  111  A    between atoms: _263  and  _266
REMARK  112  A    between atoms: _266  and  _267
REMARK  113  A    between atoms: _267  and  _268
REMARK  114  A    between atoms: _268  and  _269
REMARK  115  A    between atoms: _278  and  _280
REMARK  116  A    between atoms: _280  and  _281
REMARK  117  A    between atoms: _280  and  _283
REMARK  118  A    between atoms: _283  and  _284
REMARK  119  A    between atoms: _287  and  _289
REMARK  120  A    between atoms: _289  and  _290
REMARK  121  A    between atoms: _289  and  _292
REMARK  122  A    between atoms: _292  and  _293
REMARK  123  A    between atoms: _296  and  _298
REMARK  124  A    between atoms: _298  and  _299
REMARK  125  A    between atoms: _298  and  _301
REMARK  126  A    between atoms: _301  and  _302
REMARK  127  A    between atoms: _305  and  _307
REMARK  128  A    between atoms: _307  and  _308
REMARK  129  A    between atoms: _307  and  _310
REMARK  130  A    between atoms: _310  and  _311
REMARK  131  A    between atoms: _314  and  _316
REMARK  132  A    between atoms: _316  and  _317
REMARK  133  A    between atoms: _319  and  _321
REMARK  134  A    between atoms: _321  and  _322
REMARK  135  A    between atoms: _325  and  _327
REMARK  136  A    between atoms: _327  and  _328
REMARK  137  A    between atoms: _327  and  _330
REMARK  138  A    between atoms: _330  and  _331
REMARK  139  A    between atoms: _334  and  _336
REMARK  140  A    between atoms: _336  and  _337
REMARK  141  A    between atoms: _336  and  _339
REMARK  142  A    between atoms: _339  and  _340
REMARK  143  A    between atoms: _343  and  _345
REMARK  144  A    between atoms: _345  and  _346
REMARK  145  A    between atoms: _345  and  _348
REMARK  146  A    between atoms: _348  and  _349
REMARK  147  A    between atoms: _352  and  _354
REMARK  148  A    between atoms: _354  and  _355
REMARK  149  A    between atoms: _354  and  _357
REMARK  150  A    between atoms: _360  and  _362
REMARK  151  A    between atoms: _362  and  _363
REMARK  152  A    between atoms: _362  and  _365
REMARK  153  A    between atoms: _365  and  _366
REMARK  154  A    between atoms: _366  and  _367
REMARK  155  A    between atoms: _367  and  _368
REMARK  156  A    between atoms: _368  and  _369
REMARK  157  A    between atoms: _373  and  _375
REMARK  158  A    between atoms: _375  and  _376
REMARK  159  A    between atoms: _375  and  _378
REMARK  160  A    between atoms: _378  and  _379
REMARK  161  A    between atoms: _379  and  _380
REMARK  162  A    between atoms: _382  and  _384
REMARK  163  A    between atoms: _384  and  _385
REMARK  164  A    between atoms: _384  and  _387
REMARK  165  A    between atoms: _387  and  _388
REMARK  166  A    between atoms: _391  and  _393
REMARK  167  A    between atoms: _393  and  _394
REMARK  168  A    between atoms: _396  and  _398
REMARK  169  A    between atoms: _398  and  _399
REMARK  170  A    between atoms: _401  and  _403
REMARK  171  A    between atoms: _403  and  _404
REMARK  172  A    between atoms: _403  and  _406
REMARK  173  A    between atoms: _406  and  _407
REMARK  174  A    between atoms: _410  and  _412
REMARK  175  A    between atoms: _412  and  _413
REMARK  176  A    between atoms: _415  and  _417
REMARK  177  A    between atoms: _417  and  _418
REMARK  178  A    between atoms: _420  and  _422
REMARK  179  A    between atoms: _422  and  _423
REMARK  180  A    between atoms: _422  and  _425
REMARK  181  A    between atoms: _425  and  _426
REMARK  182  A    between atoms: _432  and  _434
REMARK  183  A    between atoms: _434  and  _435
REMARK  184  A    between atoms: _434  and  _437
REMARK  185  A    between atoms: _437  and  _438
REMARK  186  A    between atoms: _441  and  _443
REMARK  187  A    between atoms: _443  and  _444
REMARK  188  A    between atoms: _443  and  _446
REMARK  189  A    between atoms: _446  and  _447
REMARK  190  A    between atoms: _450  and  _452
REMARK  191  A    between atoms: _452  and  _453
REMARK  192  A    between atoms: _452  and  _455
REMARK  193  A    between atoms: _455  and  _456
REMARK  194  A    between atoms: _460  and  _461
REMARK  195  A    between atoms: _466  and  _468
REMARK  196  A    between atoms: _468  and  _469
REMARK  197  A    between atoms: _468  and  _471
REMARK  198  A    between atoms: _474  and  _476
REMARK  199  A    between atoms: _476  and  _477
REMARK  200  A    between atoms: _476  and  _479
REMARK  201  A    between atoms: _479  and  _480
REMARK  202  A    between atoms: _485  and  _487
REMARK  203  A    between atoms: _487  and  _488
REMARK  204  A    between atoms: _487  and  _490
REMARK  205  A    between atoms: _490  and  _491
REMARK  206  A    between atoms: _494  and  _496
REMARK  207  A    between atoms: _496  and  _497
REMARK  208  A    between atoms: _496  and  _499
REMARK  209  A    between atoms: _499  and  _500
REMARK  210  A    between atoms: _503  and  _505
REMARK  211  A    between atoms: _505  and  _506
REMARK  212  A    between atoms: _508  and  _510
REMARK  213  A    between atoms: _510  and  _511
REMARK  214  A    between atoms: _510  and  _513
REMARK  215  A    between atoms: _513  and  _514
REMARK  216  A    between atoms: _514  and  _515
REMARK  217  A    between atoms: _515  and  _516
REMARK  218  A    between atoms: _525  and  _527
REMARK  219  A    between atoms: _527  and  _528
REMARK  220  A    between atoms: _527  and  _530
REMARK  221  A    between atoms: _530  and  _531
REMARK                            x       y       z     vdW  Elec       q    Type
REMARK                         _______ _______ _______ _____ _____    ______ ____
ROOT
ATOM      1  CA  VAL A   1      32.286  31.335   5.506  0.00  0.00    +0.133 C 
ENDROOT
BRANCH   1   2
ATOM      2  CB  VAL A   1      31.622  30.520   6.645  0.00  0.00    +0.023 C 
ATOM      3  CG2 VAL A   1      30.419  31.269   7.196  0.00  0.00    +0.002 C 
ATOM      4  CG1 VAL A   1      31.200  29.138   6.155  0.00  0.00    +0.002 C 
ENDBRANCH   1   2
BRANCH   1   5
ATOM      5  N   VAL A   1      31.381  31.511   4.382  0.00  0.00    -0.239 NA
ATOM      6  H   VAL A   1      31.179  30.693   3.772  0.00  0.00    +0.142 HD
ENDBRANCH   1   5
BRANCH   1   7
ATOM      7  C   VAL A   1      33.569  30.644   5.040  0.00  0.00    +0.224 C 
ATOM      8  O   VAL A   1      33.636  30.121   3.924  0.00  0.00    -0.287 OA
ENDBRANCH   1   7
TORSDOF 3
REMARK  Name = ../refined-set-2016/2qi6/2qi6_pocket.pdb
REMARK  221 active torsions:
REMARK  status: ('A' for Active; 'I' for Inactive)
REMARK    1  A    between atoms: _1  and  _3
REMARK    2  A    between atoms: _3  and  _4
REMARK    3  A    between atoms: _3  and  _6
REMARK    4  A    between atoms: _6  and  _7
REMARK    5  A    between atoms: _7  and  _8
REMARK    6  A    between atoms: _8  and  _9
REMARK    7  A    between atoms: _18  and  _20
REMARK    8  A    between atoms: _20  and  _21
REMARK    9  A    between atoms: _20  and  _23
REMARK   10  A    between atoms: _23  and  _24
REMARK   11  A    between atoms: _27  and  _29
REMARK   12  A    between atoms: _29  and  _30
REMARK   13  A    between atoms: _29  and  _32
REMARK   14  A    between atoms: _32  and  _33
REMARK   15  A    between atoms: _36  and  _38
REMARK   16  A    between atoms: _38  and  _39
REMARK   17  A    between atoms: _38  and  _41
REMARK   18  A    between atoms: _41  and  _42
REMARK   19  A    between atoms: _45  and  _47
REMARK   20  A    between atoms: _47  and  _48
REMARK   21  A    between atoms: _47  and  _50
REMARK   22  A    between atoms: _50  and  _51
REMARK   23  A    between atoms: _54  and  _56
REMARK   24  A    between atoms: _56  and  _57
REMARK   25  A    between atoms: _59  and  _61
REMARK   26  A    between atoms: _61  and  _62
REMARK   27  A    between atoms: _65  and  _67
REMARK   28  A    between atoms: _67  and  _68
REMARK   29  A    between atoms: _67  and  _70
REMARK   30  A    between atoms: _70  and  _71
REMARK   31  A    between atoms: _74  and  _76
REMARK   32  A    between atoms: _76  and  _77
REMARK   33  A    between atoms: _76  and  _79
REMARK   34  A    between atoms: _79  and  _80
REMARK   35  A    between atoms: _83  and  _85
REMARK   36  A    between atoms: _85  and  _86
REMARK   37  A    between atoms: _85  and  _88
REMARK   38  A    between atoms: _88  and  _89
REMARK   39  A    between atoms: _92  and  _94
REMARK   40  A    between atoms: _94  and  _95
REMARK   41  A    between atoms: _94  and  _97
REMARK   42  A    between atoms: _100  and  _102
REMARK   43  A    between atoms: _102  and  _103
REMARK   44  A    between atoms: _102  and  _105
REMARK   45  A    between atoms: _105  and  _106
REMARK   46  A    between atoms: _106  and  _107
REMARK   47  A    between atoms: _107  and  _108
REMARK   48  A    between atoms: _108  and  _109
REMARK   49  A    between atoms: _113  and  _115
REMARK   50  A    between atoms: _115  and  _116
REMARK   51  A    between atoms: _115  and  _118
REMARK   52  A    between atoms: _118  and  _119
REMARK   53  A    between atoms: _119  and  _120
REMARK   54  A    between atoms: _122  and  _124
REMARK   55  A    between atoms: _124  and  _125
REMARK   56  A    between atoms: _124  and  _127
REMARK   57  A    between atoms: _127  and  _128
REMARK   58  A    between atoms: _131  and  _133
REMARK   59  A    between atoms: _133  and  _134
REMARK   60  A    between atoms: _136  and  _138
REMARK   61  A    between atoms: _138  and  _139
REMARK   62  A    between atoms: _141  and  _143
REMARK   63  A    between atoms: _143  and  _144
REMARK   64  A    between atoms: _143  and  _146
REMARK   65  A    between atoms: _146  and  _147
REMARK   66  A    between atoms: _150  and  _152
REMARK   67  A    between atoms: _152  and  _153
REMARK   68  A    between atoms: _155  and  _157
REMARK   69  A    between atoms: _157  and  _158
REMARK   70  A    between atoms: _160  and  _162
REMARK   71  A    between atoms: _162  and  _163
REMARK   72  A    between atoms: _162  and  _165
REMARK   73  A    between atoms: _165  and  _166
REMARK   74  A    between atoms: _169  and  _171
REMARK   75  A    between atoms: _171  and  _172
REMARK   76  A    between atoms: _171  and  _174
REMARK   77  A    between atoms: _177  and  _179
REMARK   78  A    between atoms: _179  and  _180
REMARK   79  A    between atoms: _179  and  _182
REMARK   80  A    between atoms: _182  and  _183
REMARK   81  A    between atoms: _186  and  _188
REMARK   82  A    between atoms: _188  and  _189
REMARK   83  A    between atoms: _188  and  _191
REMARK   84  A    between atoms: _191  and  _192
REMARK   85  A    between atoms: _196  and  _197
REMARK   86  A    between atoms: _202  and  _204
REMARK   87  A    between atoms: _204  and  _205
REMARK   88  A    between atoms: _204  and  _207
REMARK   89  A    between atoms: _210  and  _212
REMARK   90  A    between atoms: _212  and  _213
REMARK   91  A    between atoms: _212  and  _215
REMARK   92  A    between atoms: _215  and  _216
REMARK   93  A    between atoms: _221  and  _223
REMARK   94  A    between atoms: _223  and  _224
REMARK   95  A    between atoms: _223  and  _226
REMARK   96  A    between atoms: _226  and  _227
REMARK   97  A    between atoms: _230  and  _232
REMARK   98  A    between atoms: _232  and  _233
REMARK   99  A    between atoms: _232  and  _235
REMARK  100  A    between atoms: _235  and  _236
REMARK  101  A    between atoms: _239  and  _241
REMARK  102  A    between atoms: _241  and  _242
REMARK  103  A    between atoms: _244  and  _246
REMARK  104  A    between atoms: _246  and  _247
REMARK  105  A    between atoms: _246  and  _249
REMARK  106  A    between atoms: _249  and  _250
REMARK  107  A    between atoms: _250  and  _251
REMARK  108  A    between atoms: _251  and  _252
REMARK  109  A    between atoms: _261  and  _263
REMARK  110  A    between atoms: _263  and  _264
REMARK  111  A    between atoms: _263  and  _266
REMARK  112  A    between atoms: _266  and  _267
REMARK  113  A    between atoms: _267  and  _268
REMARK  114  A    between atoms: _268  and  _269
REMARK  115  A    between atoms: _278  and  _280
REMARK  116  A    between atoms: _280  and  _281
REMARK  117  A    between atoms: _280  and  _283
REMARK  118  A    between atoms: _283  and  _284
REMARK  119  A    between atoms: _287  and  _289
REMARK  120  A    between atoms: _289  and  _290
REMARK  121  A    between atoms: _289  and  _292
REMARK  122  A    between atoms: _292  and  _293
REMARK  123  A    between atoms: _296  and  _298
REMARK  124  A    between atoms: _298  and  _299
REMARK  125  A    between atoms: _298  and  _301
REMARK  126  A    between atoms: _301  and  _302
REMARK  127  A    between atoms: _305  and  _307
REMARK  128  A    between atoms: _307  and  _308
REMARK  129  A    between atoms: _307  and  _310
REMARK  130  A    between atoms: _310  and  _311
REMARK  131  A    between atoms: _314  and  _316
REMARK  132  A    between atoms: _316  and  _317
REMARK  133  A    between atoms: _319  and  _321
REMARK  134  A    between atoms: _321  and  _322
REMARK  135  A    between atoms: _325  and  _327
REMARK  136  A    between atoms: _327  and  _328
REMARK  137  A    between atoms: _327  and  _330
REMARK  138  A    between atoms: _330  and  _331
REMARK  139  A    between atoms: _334  and  _336
REMARK  140  A    between atoms: _336  and  _337
REMARK  141  A    between atoms: _336  and  _339
REMARK  142  A    between atoms: _339  and  _340
REMARK  143  A    between atoms: _343  and  _345
REMARK  144  A    between atoms: _345  and  _346
REMARK  145  A    between atoms: _345  and  _348
REMARK  146  A    between atoms: _348  and  _349
REMARK  147  A    between atoms: _352  and  _354
REMARK  148  A    between atoms: _354  and  _355
REMARK  149  A    between atoms: _354  and  _357
REMARK  150  A    between atoms: _360  and  _362
REMARK  151  A    between atoms: _362  and  _363
REMARK  152  A    between atoms: _362  and  _365
REMARK  153  A    between atoms: _365  and  _366
REMARK  154  A    between atoms: _366  and  _367
REMARK  155  A    between atoms: _367  and  _368
REMARK  156  A    between atoms: _368  and  _369
REMARK  157  A    between atoms: _373  and  _375
REMARK  158  A    between atoms: _375  and  _376
REMARK  159  A    between atoms: _375  and  _378
REMARK  160  A    between atoms: _378  and  _379
REMARK  161  A    between atoms: _379  and  _380
REMARK  162  A    between atoms: _382  and  _384
REMARK  163  A    between atoms: _384  and  _385
REMARK  164  A    between atoms: _384  and  _387
REMARK  165  A    between atoms: _387  and  _388
REMARK  166  A    between atoms: _391  and  _393
REMARK  167  A    between atoms: _393  and  _394
REMARK  168  A    between atoms: _396  and  _398
REMARK  169  A    between atoms: _398  and  _399
REMARK  170  A    between atoms: _401  and  _403
REMARK  171  A    between atoms: _403  and  _404
REMARK  172  A    between atoms: _403  and  _406
REMARK  173  A    between atoms: _406  and  _407
REMARK  174  A    between atoms: _410  and  _412
REMARK  175  A    between atoms: _412  and  _413
REMARK  176  A    between atoms: _415  and  _417
REMARK  177  A    between atoms: _417  and  _418
REMARK  178  A    between atoms: _420  and  _422
REMARK  179  A    between atoms: _422  and  _423
REMARK  180  A    between atoms: _422  and  _425
REMARK  181  A    between atoms: _425  and  _426
REMARK  182  A    between atoms: _432  and  _434
REMARK  183  A    between atoms: _434  and  _435
REMARK  184  A    between atoms: _434  and  _437
REMARK  185  A    between atoms: _437  and  _438
REMARK  186  A    between atoms: _441  and  _443
REMARK  187  A    between atoms: _443  and  _444
REMARK  188  A    between atoms: _443  and  _446
REMARK  189  A    between atoms: _446  and  _447
REMARK  190  A    between atoms: _450  and  _452
REMARK  191  A    between atoms: _452  and  _453
REMARK  192  A    between atoms: _452  and  _455
REMARK  193  A    between atoms: _455  and  _456
REMARK  194  A    between atoms: _460  and  _461
REMARK  195  A    between atoms: _466  and  _468
REMARK  196  A    between atoms: _468  and  _469
REMARK  197  A    between atoms: _468  and  _471
REMARK  198  A    between atoms: _474  and  _476
REMARK  199  A    between atoms: _476  and  _477
REMARK  200  A    between atoms: _476  and  _479
REMARK  201  A    between atoms: _479  and  _480
REMARK  202  A    between atoms: _485  and  _487
REMARK  203  A    between atoms: _487  and  _488
REMARK  204  A    between atoms: _487  and  _490
REMARK  205  A    between atoms: _490  and  _491
REMARK  206  A    between atoms: _494  and  _496
REMARK  207  A    between atoms: _496  and  _497
REMARK  208  A    between atoms: _496  and  _499
REMARK  209  A    between atoms: _499  and  _500
REMARK  210  A    between atoms: _503  and  _505
REMARK  211  A    between atoms: _505  and  _506
REMARK  212  A    between atoms: _508  and  _510
REMARK  213  A    between atoms: _510  and  _511
REMARK  214  A    between atoms: _510  and  _513
REMARK  215  A    between atoms: _513  and  _514
REMARK  216  A    between atoms: _514  and  _515
REMARK  217  A    between atoms: _515  and  _516
REMARK  218  A    between atoms: _525  and  _527
REMARK  219  A    between atoms: _527  and  _528
REMARK  220  A    between atoms: _527  and  _530
REMARK  221  A    between atoms: _530  and  _531
REMARK                            x       y       z     vdW  Elec       q    Type
REMARK                         _______ _______ _______ _____ _____    ______ ____
ROOT
ATOM      1  CA  LEU A   1      33.502  28.118  10.368  0.00  0.00    +0.133 C 
ENDROOT
BRANCH   1   2
ATOM      2  N   LEU A   1      33.776  27.238  11.487  0.00  0.00    -0.239 NA
ATOM      3  H   LEU A   1      33.045  27.134  12.219  0.00  0.00    +0.142 HD
ENDBRANCH   1   2
BRANCH   1   4
ATOM      4  C   LEU A   1      33.679  29.571  10.821  0.00  0.00    +0.224 C 
ATOM      5  O   LEU A   1      33.260  29.942  11.918  0.00  0.00    -0.287 OA
ENDBRANCH   1   4
BRANCH   1   6
ATOM      6  CB  LEU A   1      32.073  27.893   9.855  0.00  0.00    +0.025 C 
BRANCH   6   7
ATOM      7  CG  LEU A   1      31.629  26.444   9.654  0.00  0.00    +0.002 C 
ATOM      8  CD2 LEU A   1      30.190  26.385   9.140  0.00  0.00    +0.000 C 
ATOM      9  CD1 LEU A   1      32.562  25.757   8.674  0.00  0.00    +0.000 C 
ENDBRANCH   6   7
ENDBRANCH   1   6
TORSDOF 4
REMARK  Name = ../refined-set-2016/2qi6/2qi6_pocket.pdb
REMARK  221 active torsions:
REMARK  status: ('A' for Active; 'I' for Inactive)
REMARK    1  A    between atoms: _1  and  _3
REMARK    2  A    between atoms: _3  and  _4
REMARK    3  A    between atoms: _3  and  _6
REMARK    4  A    between atoms: _6  and  _7
REMARK    5  A    between atoms: _7  and  _8
REMARK    6  A    between atoms: _8  and  _9
REMARK    7  A    between atoms: _18  and  _20
REMARK    8  A    between atoms: _20  and  _21
REMARK    9  A    between atoms: _20  and  _23
REMARK   10  A    between atoms: _23  and  _24
REMARK   11  A    between atoms: _27  and  _29
REMARK   12  A    between atoms: _29  and  _30
REMARK   13  A    between atoms: _29  and  _32
REMARK   14  A    between atoms: _32  and  _33
REMARK   15  A    between atoms: _36  and  _38
REMARK   16  A    between atoms: _38  and  _39
REMARK   17  A    between atoms: _38  and  _41
REMARK   18  A    between atoms: _41  and  _42
REMARK   19  A    between atoms: _45  and  _47
REMARK   20  A    between atoms: _47  and  _48
REMARK   21  A    between atoms: _47  and  _50
REMARK   22  A    between atoms: _50  and  _51
REMARK   23  A    between atoms: _54  and  _56
REMARK   24  A    between atoms: _56  and  _57
REMARK   25  A    between atoms: _59  and  _61
REMARK   26  A    between atoms: _61  and  _62
REMARK   27  A    between atoms: _65  and  _67
REMARK   28  A    between atoms: _67  and  _68
REMARK   29  A    between atoms: _67  and  _70
REMARK   30  A    between atoms: _70  and  _71
REMARK   31  A    between atoms: _74  and  _76
REMARK   32  A    between atoms: _76  and  _77
REMARK   33  A    between atoms: _76  and  _79
REMARK   34  A    between atoms: _79  and  _80
REMARK   35  A    between atoms: _83  and  _85
REMARK   36  A    between atoms: _85  and  _86
REMARK   37  A    between atoms: _85  and  _88
REMARK   38  A    between atoms: _88  and  _89
REMARK   39  A    between atoms: _92  and  _94
REMARK   40  A    between atoms: _94  and  _95
REMARK   41  A    between atoms: _94  and  _97
REMARK   42  A    between atoms: _100  and  _102
REMARK   43  A    between atoms: _102  and  _103
REMARK   44  A    between atoms: _102  and  _105
REMARK   45  A    between atoms: _105  and  _106
REMARK   46  A    between atoms: _106  and  _107
REMARK   47  A    between atoms: _107  and  _108
REMARK   48  A    between atoms: _108  and  _109
REMARK   49  A    between atoms: _113  and  _115
REMARK   50  A    between atoms: _115  and  _116
REMARK   51  A    between atoms: _115  and  _118
REMARK   52  A    between atoms: _118  and  _119
REMARK   53  A    between atoms: _119  and  _120
REMARK   54  A    between atoms: _122  and  _124
REMARK   55  A    between atoms: _124  and  _125
REMARK   56  A    between atoms: _124  and  _127
REMARK   57  A    between atoms: _127  and  _128
REMARK   58  A    between atoms: _131  and  _133
REMARK   59  A    between atoms: _133  and  _134
REMARK   60  A    between atoms: _136  and  _138
REMARK   61  A    between atoms: _138  and  _139
REMARK   62  A    between atoms: _141  and  _143
REMARK   63  A    between atoms: _143  and  _144
REMARK   64  A    between atoms: _143  and  _146
REMARK   65  A    between atoms: _146  and  _147
REMARK   66  A    between atoms: _150  and  _152
REMARK   67  A    between atoms: _152  and  _153
REMARK   68  A    between atoms: _155  and  _157
REMARK   69  A    between atoms: _157  and  _158
REMARK   70  A    between atoms: _160  and  _162
REMARK   71  A    between atoms: _162  and  _163
REMARK   72  A    between atoms: _162  and  _165
REMARK   73  A    between atoms: _165  and  _166
REMARK   74  A    between atoms: _169  and  _171
REMARK   75  A    between atoms: _171  and  _172
REMARK   76  A    between atoms: _171  and  _174
REMARK   77  A    between atoms: _177  and  _179
REMARK   78  A    between atoms: _179  and  _180
REMARK   79  A    between atoms: _179  and  _182
REMARK   80  A    between atoms: _182  and  _183
REMARK   81  A    between atoms: _186  and  _188
REMARK   82  A    between atoms: _188  and  _189
REMARK   83  A    between atoms: _188  and  _191
REMARK   84  A    between atoms: _191  and  _192
REMARK   85  A    between atoms: _196  and  _197
REMARK   86  A    between atoms: _202  and  _204
REMARK   87  A    between atoms: _204  and  _205
REMARK   88  A    between atoms: _204  and  _207
REMARK   89  A    between atoms: _210  and  _212
REMARK   90  A    between atoms: _212  and  _213
REMARK   91  A    between atoms: _212  and  _215
REMARK   92  A    between atoms: _215  and  _216
REMARK   93  A    between atoms: _221  and  _223
REMARK   94  A    between atoms: _223  and  _224
REMARK   95  A    between atoms: _223  and  _226
REMARK   96  A    between atoms: _226  and  _227
REMARK   97  A    between atoms: _230  and  _232
REMARK   98  A    between atoms: _232  and  _233
REMARK   99  A    between atoms: _232  and  _235
REMARK  100  A    between atoms: _235  and  _236
REMARK  101  A    between atoms: _239  and  _241
REMARK  102  A    between atoms: _241  and  _242
REMARK  103  A    between atoms: _244  and  _246
REMARK  104  A    between atoms: _246  and  _247
REMARK  105  A    between atoms: _246  and  _249
REMARK  106  A    between atoms: _249  and  _250
REMARK  107  A    between atoms: _250  and  _251
REMARK  108  A    between atoms: _251  and  _252
REMARK  109  A    between atoms: _261  and  _263
REMARK  110  A    between atoms: _263  and  _264
REMARK  111  A    between atoms: _263  and  _266
REMARK  112  A    between atoms: _266  and  _267
REMARK  113  A    between atoms: _267  and  _268
REMARK  114  A    between atoms: _268  and  _269
REMARK  115  A    between atoms: _278  and  _280
REMARK  116  A    between atoms: _280  and  _281
REMARK  117  A    between atoms: _280  and  _283
REMARK  118  A    between atoms: _283  and  _284
REMARK  119  A    between atoms: _287  and  _289
REMARK  120  A    between atoms: _289  and  _290
REMARK  121  A    between atoms: _289  and  _292
REMARK  122  A    between atoms: _292  and  _293
REMARK  123  A    between atoms: _296  and  _298
REMARK  124  A    between atoms: _298  and  _299
REMARK  125  A    between atoms: _298  and  _301
REMARK  126  A    between atoms: _301  and  _302
REMARK  127  A    between atoms: _305  and  _307
REMARK  128  A    between atoms: _307  and  _308
REMARK  129  A    between atoms: _307  and  _310
REMARK  130  A    between atoms: _310  and  _311
REMARK  131  A    between atoms: _314  and  _316
REMARK  132  A    between atoms: _316  and  _317
REMARK  133  A    between atoms: _319  and  _321
REMARK  134  A    between atoms: _321  and  _322
REMARK  135  A    between atoms: _325  and  _327
REMARK  136  A    between atoms: _327  and  _328
REMARK  137  A    between atoms: _327  and  _330
REMARK  138  A    between atoms: _330  and  _331
REMARK  139  A    between atoms: _334  and  _336
REMARK  140  A    between atoms: _336  and  _337
REMARK  141  A    between atoms: _336  and  _339
REMARK  142  A    between atoms: _339  and  _340
REMARK  143  A    between atoms: _343  and  _345
REMARK  144  A    between atoms: _345  and  _346
REMARK  145  A    between atoms: _345  and  _348
REMARK  146  A    between atoms: _348  and  _349
REMARK  147  A    between atoms: _352  and  _354
REMARK  148  A    between atoms: _354  and  _355
REMARK  149  A    between atoms: _354  and  _357
REMARK  150  A    between atoms: _360  and  _362
REMARK  151  A    between atoms: _362  and  _363
REMARK  152  A    between atoms: _362  and  _365
REMARK  153  A    between atoms: _365  and  _366
REMARK  154  A    between atoms: _366  and  _367
REMARK  155  A    between atoms: _367  and  _368
REMARK  156  A    between atoms: _368  and  _369
REMARK  157  A    between atoms: _373  and  _375
REMARK  158  A    between atoms: _375  and  _376
REMARK  159  A    between atoms: _375  and  _378
REMARK  160  A    between atoms: _378  and  _379
REMARK  161  A    between atoms: _379  and  _380
REMARK  162  A    between atoms: _382  and  _384
REMARK  163  A    between atoms: _384  and  _385
REMARK  164  A    between atoms: _384  and  _387
REMARK  165  A    between atoms: _387  and  _388
REMARK  166  A    between atoms: _391  and  _393
REMARK  167  A    between atoms: _393  and  _394
REMARK  168  A    between atoms: _396  and  _398
REMARK  169  A    between atoms: _398  and  _399
REMARK  170  A    between atoms: _401  and  _403
REMARK  171  A    between atoms: _403  and  _404
REMARK  172  A    between atoms: _403  and  _406
REMARK  173  A    between atoms: _406  and  _407
REMARK  174  A    between atoms: _410  and  _412
REMARK  175  A    between atoms: _412  and  _413
REMARK  176  A    between atoms: _415  and  _417
REMARK  177  A    between atoms: _417  and  _418
REMARK  178  A    between atoms: _420  and  _422
REMARK  179  A    between atoms: _422  and  _423
REMARK  180  A    between atoms: _422  and  _425
REMARK  181  A    between atoms: _425  and  _426
REMARK  182  A    between atoms: _432  and  _434
REMARK  183  A    between atoms: _434  and  _435
REMARK  184  A    between atoms: _434  and  _437
REMARK  185  A    between atoms: _437  and  _438
REMARK  186  A    between atoms: _441  and  _443
REMARK  187  A    between atoms: _443  and  _444
REMARK  188  A    between atoms: _443  and  _446
REMARK  189  A    between atoms: _446  and  _447
REMARK  190  A    between atoms: _450  and  _452
REMARK  191  A    between atoms: _452  and  _453
REMARK  192  A    between atoms: _452  and  _455
REMARK  193  A    between atoms: _455  and  _456
REMARK  194  A    between atoms: _460  and  _461
REMARK  195  A    between atoms: _466  and  _468
REMARK  196  A    between atoms: _468  and  _469
REMARK  197  A    between atoms: _468  and  _471
REMARK  198  A    between atoms: _474  and  _476
REMARK  199  A    between atoms: _476  and  _477
REMARK  200  A    between atoms: _476  and  _479
REMARK  201  A    between atoms: _479  and  _480
REMARK  202  A    between atoms: _485  and  _487
REMARK  203  A    between atoms: _487  and  _488
REMARK  204  A    between atoms: _487  and  _490
REMARK  205  A    between atoms: _490  and  _491
REMARK  206  A    between atoms: _494  and  _496
REMARK  207  A    between atoms: _496  and  _497
REMARK  208  A    between atoms: _496  and  _499
REMARK  209  A    between atoms: _499  and  _500
REMARK  210  A    between atoms: _503  and  _505
REMARK  211  A    between atoms: _505  and  _506
REMARK  212  A    between atoms: _508  and  _510
REMARK  213  A    between atoms: _510  and  _511
REMARK  214  A    between atoms: _510  and  _513
REMARK  215  A    between atoms: _513  and  _514
REMARK  216  A    between atoms: _514  and  _515
REMARK  217  A    between atoms: _515  and  _516
REMARK  218  A    between atoms: _525  and  _527
REMARK  219  A    between atoms: _527  and  _528
REMARK  220  A    between atoms: _527  and  _530
REMARK  221  A    between atoms: _530  and  _531
REMARK                            x       y       z     vdW  Elec       q    Type
REMARK                         _______ _______ _______ _____ _____    ______ ____
ROOT
ATOM      1  CA  ILE A   5      28.065  30.251  18.251  0.00  0.00    +0.149 C 
ENDROOT
BRANCH   1   4
ATOM      2  C   ASN A   4      29.084  32.434  18.567  0.00  0.00    +0.241 C 
ATOM      3  O   ASN A   4      28.463  32.622  19.613  0.00  0.00    -0.273 OA
ATOM      4  N   ILE A   5      28.941  31.338  17.828  0.00  0.00    -0.297 N 
ATOM      5  H   ILE A   5      29.463  31.254  16.932  0.00  0.00    +0.150 HD
BRANCH   2   6
ATOM      6  CA  ASN A   4      30.057  33.493  18.058  0.00  0.00    +0.158 C 
BRANCH   6   8
ATOM      7  C   VAL A   3      28.314  34.946  17.182  0.00  0.00    +0.241 C 
ATOM      8  N   ASN A   4      29.365  34.780  17.978  0.00  0.00    -0.297 N 
ATOM      9  H   ASN A   4      29.701  35.578  18.554  0.00  0.00    +0.150 HD
ATOM     10  O   VAL A   3      27.943  34.100  16.363  0.00  0.00    -0.273 OA
BRANCH   7  11
ATOM     11  CA  VAL A   3      27.579  36.273  17.299  0.00  0.00    +0.149 C 
BRANCH  11  14
ATOM     12  C   PRO A   2      26.581  37.798  15.672  0.00  0.00    +0.241 C 
ATOM     13  O   PRO A   2      26.839  38.788  16.363  0.00  0.00    -0.273 OA
ATOM     14  N   VAL A   3      26.853  36.555  16.060  0.00  0.00    -0.297 N 
ATOM     15  H   VAL A   3      26.541  35.761  15.466  0.00  0.00    +0.150 HD
BRANCH  12  18
ATOM     16  C   THR A   1      27.432  36.631  12.946  0.00  0.00    +0.244 C 
ATOM     17  N   PRO A   2      26.180  36.869  13.367  0.00  0.00    -0.272 N 
ATOM     18  CA  PRO A   2      25.920  37.969  14.305  0.00  0.00    +0.152 C 
ATOM     19  CB  PRO A   2      24.391  37.960  14.453  0.00  0.00    +0.031 C 
ATOM     20  CG  PRO A   2      23.990  36.560  14.091  0.00  0.00    +0.024 C 
ATOM     21  CD  PRO A   2      24.937  36.147  13.015  0.00  0.00    +0.094 C 
ATOM     22  O   THR A   1      28.385  37.345  13.267  0.00  0.00    -0.273 OA
BRANCH  16  23
ATOM     23  CA  THR A   1      27.663  35.429  12.028  0.00  0.00    +0.172 C 
BRANCH  23  24
ATOM     24  CB  THR A   1      28.058  34.155  12.833  0.00  0.00    +0.135 C 
ATOM     25  CG2 THR A   1      29.403  34.304  13.519  0.00  0.00    +0.034 C 
BRANCH  24  26
ATOM     26  OG1 THR A   1      27.057  33.856  13.812  0.00  0.00    -0.383 OA
ATOM     27  HG1 THR A   1      26.969  34.619  14.436  0.00  0.00    +0.210 HD
ENDBRANCH  24  26
ENDBRANCH  23  24
BRANCH  23  28
ATOM     28  N   THR A   1      28.692  35.791  11.070  0.00  0.00    -0.236 NA
ATOM     29  H   THR A   1      29.638  35.369  11.163  0.00  0.00    +0.142 HD
ENDBRANCH  23  28
ENDBRANCH  16  23
ENDBRANCH  12  18
ENDBRANCH  11  14
BRANCH  11  30
ATOM     30  CB  VAL A   3      26.655  36.213  18.525  0.00  0.00    +0.027 C 
ATOM     31  CG2 VAL A   3      26.060  37.588  18.832  0.00  0.00    +0.002 C 
ATOM     32  CG1 VAL A   3      25.556  35.179  18.331  0.00  0.00    +0.002 C 
ENDBRANCH  11  30
ENDBRANCH   7  11
ENDBRANCH   6   8
BRANCH   6  33
ATOM     33  CB  ASN A   4      31.236  33.552  19.031  0.00  0.00    +0.114 C 
BRANCH  33  34
ATOM     34  CG  ASN A   4      32.333  34.497  18.598  0.00  0.00    +0.222 C 
ATOM     35  ND2 ASN A   4      32.973  35.126  19.582  0.00  0.00    -0.329 N 
ATOM     36 HD21 ASN A   4      32.705  34.952  20.572  0.00  0.00    +0.145 HD
ATOM     37 HD22 ASN A   4      33.741  35.791  19.361  0.00  0.00    +0.145 HD
ATOM     38  OD1 ASN A   4      32.612  34.668  17.407  0.00  0.00    -0.275 OA
ENDBRANCH  33  34
ENDBRANCH   6  33
ENDBRANCH   2   6
ENDBRANCH   1   4
BRANCH   1  39
ATOM     39  C   ILE A   5      28.772  28.898  18.254  0.00  0.00    +0.241 C 
ATOM     40  N   ILE A   6      28.549  28.139  19.320  0.00  0.00    -0.297 N 
ATOM     41  H   ILE A   6      28.051  28.547  20.137  0.00  0.00    +0.150 HD
ATOM     42  O   ILE A   5      29.512  28.559  17.329  0.00  0.00    -0.273 OA
BRANCH  40  43
ATOM     43  CA  ILE A   6      28.983  26.752  19.376  0.00  0.00    +0.149 C 
BRANCH  43  44
ATOM     44  C   ILE A   6      27.800  25.891  18.984  0.00  0.00    +0.241 C 
ATOM     45  O   ILE A   6      26.788  25.854  19.699  0.00  0.00    -0.273 OA
ATOM     46  N   GLY A   7      27.937  25.187  17.863  0.00  0.00    -0.295 N 
ATOM     47  H   GLY A   7      28.827  25.250  17.329  0.00  0.00    +0.150 HD
BRANCH  46  48
ATOM     48  CA  GLY A   7      26.868  24.329  17.366  0.00  0.00    +0.176 C 
BRANCH  48  49
ATOM     49  C   GLY A   7      27.022  22.863  17.713  0.00  0.00    +0.243 C 
ATOM     50  O   GLY A   7      27.953  22.458  18.416  0.00  0.00    -0.273 OA
ATOM     51  N   ARG A   8      26.107  22.059  17.177  0.00  0.00    -0.298 N 
ATOM     52  H   ARG A   8      25.459  22.438  16.457  0.00  0.00    +0.150 HD
BRANCH  51  53
ATOM     53  CA  ARG A   8      25.989  20.660  17.573  0.00  0.00    +0.137 C 
BRANCH  53  54
ATOM     54  C   ARG A   8      27.242  19.840  17.277  0.00  0.00    +0.227 C 
ATOM     55  O   ARG A   8      27.523  18.873  17.985  0.00  0.00    -0.286 OA
ENDBRANCH  53  54
BRANCH  53  56
ATOM     56  CB  ARG A   8      24.761  20.002  16.927  0.00  0.00    +0.031 C 
BRANCH  56  57
ATOM     57  CG  ARG A   8      23.444  20.513  17.492  0.00  0.00    +0.045 C 
BRANCH  57  58
ATOM     58  CD  ARG A   8      22.232  19.724  16.991  0.00  0.00    +0.174 C 
BRANCH  58  59
ATOM     59  NE  ARG A   8      22.123  19.775  15.533  0.00  0.00    -0.265 N 
ATOM     60  HE  ARG A   8      21.661  20.611  15.122  0.00  0.00    +0.259 HD
ATOM     61  CZ  ARG A   8      22.561  18.849  14.686  0.00  0.00    +0.342 C 
ATOM     62  NH2 ARG A   8      23.147  17.733  15.107  0.00  0.00    -0.292 N 
ATOM     63 HH21 ARG A   8      23.274  17.565  16.125  0.00  0.00    +0.255 HD
ATOM     64 HH22 ARG A   8      23.479  17.028  14.418  0.00  0.00    +0.255 HD
ATOM     65  NH1 ARG A   8      22.410  19.060  13.388  0.00  0.00    -0.292 N 
ATOM     66 HH11 ARG A   8      21.958  19.934  13.052  0.00  0.00    +0.255 HD
ATOM     67 HH12 ARG A   8      22.744  18.352  12.704  0.00  0.00    +0.255 HD
ENDBRANCH  58  59
ENDBRANCH  57  58
ENDBRANCH  56  57
ENDBRANCH  53  56
ENDBRANCH  51  53
ENDBRANCH  48  49
ENDBRANCH  46  48
ENDBRANCH  43  44
BRANCH  43  68
ATOM     68  CB  ILE A   6      29.452  26.348  20.779  0.00  0.00    +0.027 C 
ATOM     69  CG2 ILE A   6      29.994  24.922  20.766  0.00  0.00    +0.002 C 
BRANCH  68  70
ATOM     70  CG1 ILE A   6      30.494  27.338  21.312  0.00  0.00    +0.002 C 
ATOM     71  CD1 ILE A   6      31.699  27.528  20.435  0.00  0.00    +0.000 C 
ENDBRANCH  68  70
ENDBRANCH  43  68
ENDBRANCH  40  43
ENDBRANCH   1  39
BRANCH   1  72
ATOM     72  CB  ILE A   5      26.775  30.189  17.398  0.00  0.00    +0.027 C 
ATOM     73  CG2 ILE A   5      26.009  31.506  17.497  0.00  0.00    +0.002 C 
BRANCH  72  74
ATOM     74  CG1 ILE A   5      27.082  29.828  15.934  0.00  0.00    +0.002 C 
ATOM     75  CD1 ILE A   5      25.843  29.728  15.057  0.00  0.00    +0.000 C 
ENDBRANCH  72  74
ENDBRANCH   1  72
TORSDOF 28
REMARK  Name = ../refined-set-2016/2qi6/2qi6_pocket.pdb
REMARK  221 active torsions:
REMARK  status: ('A' for Active; 'I' for Inactive)
REMARK    1  A    between atoms: _1  and  _3
REMARK    2  A    between atoms: _3  and  _4
REMARK    3  A    between atoms: _3  and  _6
REMARK    4  A    between atoms: _6  and  _7
REMARK    5  A    between atoms: _7  and  _8
REMARK    6  A    between atoms: _8  and  _9
REMARK    7  A    between atoms: _18  and  _20
REMARK    8  A    between atoms: _20  and  _21
REMARK    9  A    between atoms: _20  and  _23
REMARK   10  A    between atoms: _23  and  _24
REMARK   11  A    between atoms: _27  and  _29
REMARK   12  A    between atoms: _29  and  _30
REMARK   13  A    between atoms: _29  and  _32
REMARK   14  A    between atoms: _32  and  _33
REMARK   15  A    between atoms: _36  and  _38
REMARK   16  A    between atoms: _38  and  _39
REMARK   17  A    between atoms: _38  and  _41
REMARK   18  A    between atoms: _41  and  _42
REMARK   19  A    between atoms: _45  and  _47
REMARK   20  A    between atoms: _47  and  _48
REMARK   21  A    between atoms: _47  and  _50
REMARK   22  A    between atoms: _50  and  _51
REMARK   23  A    between atoms: _54  and  _56
REMARK   24  A    between atoms: _56  and  _57
REMARK   25  A    between atoms: _59  and  _61
REMARK   26  A    between atoms: _61  and  _62
REMARK   27  A    between atoms: _65  and  _67
REMARK   28  A    between atoms: _67  and  _68
REMARK   29  A    between atoms: _67  and  _70
REMARK   30  A    between atoms: _70  and  _71
REMARK   31  A    between atoms: _74  and  _76
REMARK   32  A    between atoms: _76  and  _77
REMARK   33  A    between atoms: _76  and  _79
REMARK   34  A    between atoms: _79  and  _80
REMARK   35  A    between atoms: _83  and  _85
REMARK   36  A    between atoms: _85  and  _86
REMARK   37  A    between atoms: _85  and  _88
REMARK   38  A    between atoms: _88  and  _89
REMARK   39  A    between atoms: _92  and  _94
REMARK   40  A    between atoms: _94  and  _95
REMARK   41  A    between atoms: _94  and  _97
REMARK   42  A    between atoms: _100  and  _102
REMARK   43  A    between atoms: _102  and  _103
REMARK   44  A    between atoms: _102  and  _105
REMARK   45  A    between atoms: _105  and  _106
REMARK   46  A    between atoms: _106  and  _107
REMARK   47  A    between atoms: _107  and  _108
REMARK   48  A    between atoms: _108  and  _109
REMARK   49  A    between atoms: _113  and  _115
REMARK   50  A    between atoms: _115  and  _116
REMARK   51  A    between atoms: _115  and  _118
REMARK   52  A    between atoms: _118  and  _119
REMARK   53  A    between atoms: _119  and  _120
REMARK   54  A    between atoms: _122  and  _124
REMARK   55  A    between atoms: _124  and  _125
REMARK   56  A    between atoms: _124  and  _127
REMARK   57  A    between atoms: _127  and  _128
REMARK   58  A    between atoms: _131  and  _133
REMARK   59  A    between atoms: _133  and  _134
REMARK   60  A    between atoms: _136  and  _138
REMARK   61  A    between atoms: _138  and  _139
REMARK   62  A    between atoms: _141  and  _143
REMARK   63  A    between atoms: _143  and  _144
REMARK   64  A    between atoms: _143  and  _146
REMARK   65  A    between atoms: _146  and  _147
REMARK   66  A    between atoms: _150  and  _152
REMARK   67  A    between atoms: _152  and  _153
REMARK   68  A    between atoms: _155  and  _157
REMARK   69  A    between atoms: _157  and  _158
REMARK   70  A    between atoms: _160  and  _162
REMARK   71  A    between atoms: _162  and  _163
REMARK   72  A    between atoms: _162  and  _165
REMARK   73  A    between atoms: _165  and  _166
REMARK   74  A    between atoms: _169  and  _171
REMARK   75  A    between atoms: _171  and  _172
REMARK   76  A    between atoms: _171  and  _174
REMARK   77  A    between atoms: _177  and  _179
REMARK   78  A    between atoms: _179  and  _180
REMARK   79  A    between atoms: _179  and  _182
REMARK   80  A    between atoms: _182  and  _183
REMARK   81  A    between atoms: _186  and  _188
REMARK   82  A    between atoms: _188  and  _189
REMARK   83  A    between atoms: _188  and  _191
REMARK   84  A    between atoms: _191  and  _192
REMARK   85  A    between atoms: _196  and  _197
REMARK   86  A    between atoms: _202  and  _204
REMARK   87  A    between atoms: _204  and  _205
REMARK   88  A    between atoms: _204  and  _207
REMARK   89  A    between atoms: _210  and  _212
REMARK   90  A    between atoms: _212  and  _213
REMARK   91  A    between atoms: _212  and  _215
REMARK   92  A    between atoms: _215  and  _216
REMARK   93  A    between atoms: _221  and  _223
REMARK   94  A    between atoms: _223  and  _224
REMARK   95  A    between atoms: _223  and  _226
REMARK   96  A    between atoms: _226  and  _227
REMARK   97  A    between atoms: _230  and  _232
REMARK   98  A    between atoms: _232  and  _233
REMARK   99  A    between atoms: _232  and  _235
REMARK  100  A    between atoms: _235  and  _236
REMARK  101  A    between atoms: _239  and  _241
REMARK  102  A    between atoms: _241  and  _242
REMARK  103  A    between atoms: _244  and  _246
REMARK  104  A    between atoms: _246  and  _247
REMARK  105  A    between atoms: _246  and  _249
REMARK  106  A    between atoms: _249  and  _250
REMARK  107  A    between atoms: _250  and  _251
REMARK  108  A    between atoms: _251  and  _252
REMARK  109  A    between atoms: _261  and  _263
REMARK  110  A    between atoms: _263  and  _264
REMARK  111  A    between atoms: _263  and  _266
REMARK  112  A    between atoms: _266  and  _267
REMARK  113  A    between atoms: _267  and  _268
REMARK  114  A    between atoms: _268  and  _269
REMARK  115  A    between atoms: _278  and  _280
REMARK  116  A    between atoms: _280  and  _281
REMARK  117  A    between atoms: _280  and  _283
REMARK  118  A    between atoms: _283  and  _284
REMARK  119  A    between atoms: _287  and  _289
REMARK  120  A    between atoms: _289  and  _290
REMARK  121  A    between atoms: _289  and  _292
REMARK  122  A    between atoms: _292  and  _293
REMARK  123  A    between atoms: _296  and  _298
REMARK  124  A    between atoms: _298  and  _299
REMARK  125  A    between atoms: _298  and  _301
REMARK  126  A    between atoms: _301  and  _302
REMARK  127  A    between atoms: _305  and  _307
REMARK  128  A    between atoms: _307  and  _308
REMARK  129  A    between atoms: _307  and  _310
REMARK  130  A    between atoms: _310  and  _311
REMARK  131  A    between atoms: _314  and  _316
REMARK  132  A    between atoms: _316  and  _317
REMARK  133  A    between atoms: _319  and  _321
REMARK  134  A    between atoms: _321  and  _322
REMARK  135  A    between atoms: _325  and  _327
REMARK  136  A    between atoms: _327  and  _328
REMARK  137  A    between atoms: _327  and  _330
REMARK  138  A    between atoms: _330  and  _331
REMARK  139  A    between atoms: _334  and  _336
REMARK  140  A    between atoms: _336  and  _337
REMARK  141  A    between atoms: _336  and  _339
REMARK  142  A    between atoms: _339  and  _340
REMARK  143  A    between atoms: _343  and  _345
REMARK  144  A    between atoms: _345  and  _346
REMARK  145  A    between atoms: _345  and  _348
REMARK  146  A    between atoms: _348  and  _349
REMARK  147  A    between atoms: _352  and  _354
REMARK  148  A    between atoms: _354  and  _355
REMARK  149  A    between atoms: _354  and  _357
REMARK  150  A    between atoms: _360  and  _362
REMARK  151  A    between atoms: _362  and  _363
REMARK  152  A    between atoms: _362  and  _365
REMARK  153  A    between atoms: _365  and  _366
REMARK  154  A    between atoms: _366  and  _367
REMARK  155  A    between atoms: _367  and  _368
REMARK  156  A    between atoms: _368  and  _369
REMARK  157  A    between atoms: _373  and  _375
REMARK  158  A    between atoms: _375  and  _376
REMARK  159  A    between atoms: _375  and  _378
REMARK  160  A    between atoms: _378  and  _379
REMARK  161  A    between atoms: _379  and  _380
REMARK  162  A    between atoms: _382  and  _384
REMARK  163  A    between atoms: _384  and  _385
REMARK  164  A    between atoms: _384  and  _387
REMARK  165  A    between atoms: _387  and  _388
REMARK  166  A    between atoms: _391  and  _393
REMARK  167  A    between atoms: _393  and  _394
REMARK  168  A    between atoms: _396  and  _398
REMARK  169  A    between atoms: _398  and  _399
REMARK  170  A    between atoms: _401  and  _403
REMARK  171  A    between atoms: _403  and  _404
REMARK  172  A    between atoms: _403  and  _406
REMARK  173  A    between atoms: _406  and  _407
REMARK  174  A    between atoms: _410  and  _412
REMARK  175  A    between atoms: _412  and  _413
REMARK  176  A    between atoms: _415  and  _417
REMARK  177  A    between atoms: _417  and  _418
REMARK  178  A    between atoms: _420  and  _422
REMARK  179  A    between atoms: _422  and  _423
REMARK  180  A    between atoms: _422  and  _425
REMARK  181  A    between atoms: _425  and  _426
REMARK  182  A    between atoms: _432  and  _434
REMARK  183  A    between atoms: _434  and  _435
REMARK  184  A    between atoms: _434  and  _437
REMARK  185  A    between atoms: _437  and  _438
REMARK  186  A    between atoms: _441  and  _443
REMARK  187  A    between atoms: _443  and  _444
REMARK  188  A    between atoms: _443  and  _446
REMARK  189  A    between atoms: _446  and  _447
REMARK  190  A    between atoms: _450  and  _452
REMARK  191  A    between atoms: _452  and  _453
REMARK  192  A    between atoms: _452  and  _455
REMARK  193  A    between atoms: _455  and  _456
REMARK  194  A    between atoms: _460  and  _461
REMARK  195  A    between atoms: _466  and  _468
REMARK  196  A    between atoms: _468  and  _469
REMARK  197  A    between atoms: _468  and  _471
REMARK  198  A    between atoms: _474  and  _476
REMARK  199  A    between atoms: _476  and  _477
REMARK  200  A    between atoms: _476  and  _479
REMARK  201  A    between atoms: _479  and  _480
REMARK  202  A    between atoms: _485  and  _487
REMARK  203  A    between atoms: _487  and  _488
REMARK  204  A    between atoms: _487  and  _490
REMARK  205  A    between atoms: _490  and  _491
REMARK  206  A    between atoms: _494  and  _496
REMARK  207  A    between atoms: _496  and  _497
REMARK  208  A    between atoms: _496  and  _499
REMARK  209  A    between atoms: _499  and  _500
REMARK  210  A    between atoms: _503  and  _505
REMARK  211  A    between atoms: _505  and  _506
REMARK  212  A    between atoms: _508  and  _510
REMARK  213  A    between atoms: _510  and  _511
REMARK  214  A    between atoms: _510  and  _513
REMARK  215  A    between atoms: _513  and  _514
REMARK  216  A    between atoms: _514  and  _515
REMARK  217  A    between atoms: _515  and  _516
REMARK  218  A    between atoms: _525  and  _527
REMARK  219  A    between atoms: _527  and  _528
REMARK  220  A    between atoms: _527  and  _530
REMARK  221  A    between atoms: _530  and  _531
REMARK                            x       y       z     vdW  Elec       q    Type
REMARK                         _______ _______ _______ _____ _____    ______ ____
ROOT
ATOM      1  NE  ARG A   1      18.879  20.923  11.100  0.00  0.00    -0.265 N 
ATOM      2  HE  ARG A   1      19.725  20.409  10.781  0.00  0.00    +0.259 HD
ATOM      3  CZ  ARG A   1      18.614  22.100  10.532  0.00  0.00    +0.342 C 
ATOM      4  NH2 ARG A   1      17.572  22.840  10.931  0.00  0.00    -0.292 N 
ATOM      5 HH21 ARG A   1      16.954  22.499  11.695  0.00  0.00    +0.255 HD
ATOM      6 HH22 ARG A   1      17.380  23.756  10.477  0.00  0.00    +0.255 HD
ATOM      7  NH1 ARG A   1      19.423  22.565   9.585  0.00  0.00    -0.292 N 
ATOM      8 HH11 ARG A   1      20.254  22.012   9.293  0.00  0.00    +0.255 HD
ATOM      9 HH12 ARG A   1      19.225  23.482   9.136  0.00  0.00    +0.255 HD
ENDROOT
BRANCH   1  10
ATOM     10  CD  ARG A   1      18.059  20.307  12.142  0.00  0.00    +0.174 C 
BRANCH  10  11
ATOM     11  CG  ARG A   1      18.856  19.495  13.138  0.00  0.00    +0.045 C 
BRANCH  11  12
ATOM     12  CB  ARG A   1      17.916  18.910  14.172  0.00  0.00    +0.029 C 
BRANCH  12  13
ATOM     13  CA  ARG A   1      18.630  18.296  15.370  0.00  0.00    +0.133 C 
BRANCH  13  14
ATOM     14  N   ARG A   1      19.372  17.113  14.961  0.00  0.00    -0.239 NA
ATOM     15  H   ARG A   1      19.344  16.805  13.968  0.00  0.00    +0.142 HD
ENDBRANCH  13  14
BRANCH  13  16
ATOM     16  C   ARG A   1      17.616  17.960  16.462  0.00  0.00    +0.224 C 
ATOM     17  O   ARG A   1      16.882  16.973  16.347  0.00  0.00    -0.287 OA
ENDBRANCH  13  16
ENDBRANCH  12  13
ENDBRANCH  11  12
ENDBRANCH  10  11
ENDBRANCH   1  10
TORSDOF 6
REMARK  Name = ../refined-set-2016/2qi6/2qi6_pocket.pdb
REMARK  221 active torsions:
REMARK  status: ('A' for Active; 'I' for Inactive)
REMARK    1  A    between atoms: _1  and  _3
REMARK    2  A    between atoms: _3  and  _4
REMARK    3  A    between atoms: _3  and  _6
REMARK    4  A    between atoms: _6  and  _7
REMARK    5  A    between atoms: _7  and  _8
REMARK    6  A    between atoms: _8  and  _9
REMARK    7  A    between atoms: _18  and  _20
REMARK    8  A    between atoms: _20  and  _21
REMARK    9  A    between atoms: _20  and  _23
REMARK   10  A    between atoms: _23  and  _24
REMARK   11  A    between atoms: _27  and  _29
REMARK   12  A    between atoms: _29  and  _30
REMARK   13  A    between atoms: _29  and  _32
REMARK   14  A    between atoms: _32  and  _33
REMARK   15  A    between atoms: _36  and  _38
REMARK   16  A    between atoms: _38  and  _39
REMARK   17  A    between atoms: _38  and  _41
REMARK   18  A    between atoms: _41  and  _42
REMARK   19  A    between atoms: _45  and  _47
REMARK   20  A    between atoms: _47  and  _48
REMARK   21  A    between atoms: _47  and  _50
REMARK   22  A    between atoms: _50  and  _51
REMARK   23  A    between atoms: _54  and  _56
REMARK   24  A    between atoms: _56  and  _57
REMARK   25  A    between atoms: _59  and  _61
REMARK   26  A    between atoms: _61  and  _62
REMARK   27  A    between atoms: _65  and  _67
REMARK   28  A    between atoms: _67  and  _68
REMARK   29  A    between atoms: _67  and  _70
REMARK   30  A    between atoms: _70  and  _71
REMARK   31  A    between atoms: _74  and  _76
REMARK   32  A    between atoms: _76  and  _77
REMARK   33  A    between atoms: _76  and  _79
REMARK   34  A    between atoms: _79  and  _80
REMARK   35  A    between atoms: _83  and  _85
REMARK   36  A    between atoms: _85  and  _86
REMARK   37  A    between atoms: _85  and  _88
REMARK   38  A    between atoms: _88  and  _89
REMARK   39  A    between atoms: _92  and  _94
REMARK   40  A    between atoms: _94  and  _95
REMARK   41  A    between atoms: _94  and  _97
REMARK   42  A    between atoms: _100  and  _102
REMARK   43  A    between atoms: _102  and  _103
REMARK   44  A    between atoms: _102  and  _105
REMARK   45  A    between atoms: _105  and  _106
REMARK   46  A    between atoms: _106  and  _107
REMARK   47  A    between atoms: _107  and  _108
REMARK   48  A    between atoms: _108  and  _109
REMARK   49  A    between atoms: _113  and  _115
REMARK   50  A    between atoms: _115  and  _116
REMARK   51  A    between atoms: _115  and  _118
REMARK   52  A    between atoms: _118  and  _119
REMARK   53  A    between atoms: _119  and  _120
REMARK   54  A    between atoms: _122  and  _124
REMARK   55  A    between atoms: _124  and  _125
REMARK   56  A    between atoms: _124  and  _127
REMARK   57  A    between atoms: _127  and  _128
REMARK   58  A    between atoms: _131  and  _133
REMARK   59  A    between atoms: _133  and  _134
REMARK   60  A    between atoms: _136  and  _138
REMARK   61  A    between atoms: _138  and  _139
REMARK   62  A    between atoms: _141  and  _143
REMARK   63  A    between atoms: _143  and  _144
REMARK   64  A    between atoms: _143  and  _146
REMARK   65  A    between atoms: _146  and  _147
REMARK   66  A    between atoms: _150  and  _152
REMARK   67  A    between atoms: _152  and  _153
REMARK   68  A    between atoms: _155  and  _157
REMARK   69  A    between atoms: _157  and  _158
REMARK   70  A    between atoms: _160  and  _162
REMARK   71  A    between atoms: _162  and  _163
REMARK   72  A    between atoms: _162  and  _165
REMARK   73  A    between atoms: _165  and  _166
REMARK   74  A    between atoms: _169  and  _171
REMARK   75  A    between atoms: _171  and  _172
REMARK   76  A    between atoms: _171  and  _174
REMARK   77  A    between atoms: _177  and  _179
REMARK   78  A    between atoms: _179  and  _180
REMARK   79  A    between atoms: _179  and  _182
REMARK   80  A    between atoms: _182  and  _183
REMARK   81  A    between atoms: _186  and  _188
REMARK   82  A    between atoms: _188  and  _189
REMARK   83  A    between atoms: _188  and  _191
REMARK   84  A    between atoms: _191  and  _192
REMARK   85  A    between atoms: _196  and  _197
REMARK   86  A    between atoms: _202  and  _204
REMARK   87  A    between atoms: _204  and  _205
REMARK   88  A    between atoms: _204  and  _207
REMARK   89  A    between atoms: _210  and  _212
REMARK   90  A    between atoms: _212  and  _213
REMARK   91  A    between atoms: _212  and  _215
REMARK   92  A    between atoms: _215  and  _216
REMARK   93  A    between atoms: _221  and  _223
REMARK   94  A    between atoms: _223  and  _224
REMARK   95  A    between atoms: _223  and  _226
REMARK   96  A    between atoms: _226  and  _227
REMARK   97  A    between atoms: _230  and  _232
REMARK   98  A    between atoms: _232  and  _233
REMARK   99  A    between atoms: _232  and  _235
REMARK  100  A    between atoms: _235  and  _236
REMARK  101  A    between atoms: _239  and  _241
REMARK  102  A    between atoms: _241  and  _242
REMARK  103  A    between atoms: _244  and  _246
REMARK  104  A    between atoms: _246  and  _247
REMARK  105  A    between atoms: _246  and  _249
REMARK  106  A    between atoms: _249  and  _250
REMARK  107  A    between atoms: _250  and  _251
REMARK  108  A    between atoms: _251  and  _252
REMARK  109  A    between atoms: _261  and  _263
REMARK  110  A    between atoms: _263  and  _264
REMARK  111  A    between atoms: _263  and  _266
REMARK  112  A    between atoms: _266  and  _267
REMARK  113  A    between atoms: _267  and  _268
REMARK  114  A    between atoms: _268  and  _269
REMARK  115  A    between atoms: _278  and  _280
REMARK  116  A    between atoms: _280  and  _281
REMARK  117  A    between atoms: _280  and  _283
REMARK  118  A    between atoms: _283  and  _284
REMARK  119  A    between atoms: _287  and  _289
REMARK  120  A    between atoms: _289  and  _290
REMARK  121  A    between atoms: _289  and  _292
REMARK  122  A    between atoms: _292  and  _293
REMARK  123  A    between atoms: _296  and  _298
REMARK  124  A    between atoms: _298  and  _299
REMARK  125  A    between atoms: _298  and  _301
REMARK  126  A    between atoms: _301  and  _302
REMARK  127  A    between atoms: _305  and  _307
REMARK  128  A    between atoms: _307  and  _308
REMARK  129  A    between atoms: _307  and  _310
REMARK  130  A    between atoms: _310  and  _311
REMARK  131  A    between atoms: _314  and  _316
REMARK  132  A    between atoms: _316  and  _317
REMARK  133  A    between atoms: _319  and  _321
REMARK  134  A    between atoms: _321  and  _322
REMARK  135  A    between atoms: _325  and  _327
REMARK  136  A    between atoms: _327  and  _328
REMARK  137  A    between atoms: _327  and  _330
REMARK  138  A    between atoms: _330  and  _331
REMARK  139  A    between atoms: _334  and  _336
REMARK  140  A    between atoms: _336  and  _337
REMARK  141  A    between atoms: _336  and  _339
REMARK  142  A    between atoms: _339  and  _340
REMARK  143  A    between atoms: _343  and  _345
REMARK  144  A    between atoms: _345  and  _346
REMARK  145  A    between atoms: _345  and  _348
REMARK  146  A    between atoms: _348  and  _349
REMARK  147  A    between atoms: _352  and  _354
REMARK  148  A    between atoms: _354  and  _355
REMARK  149  A    between atoms: _354  and  _357
REMARK  150  A    between atoms: _360  and  _362
REMARK  151  A    between atoms: _362  and  _363
REMARK  152  A    between atoms: _362  and  _365
REMARK  153  A    between atoms: _365  and  _366
REMARK  154  A    between atoms: _366  and  _367
REMARK  155  A    between atoms: _367  and  _368
REMARK  156  A    between atoms: _368  and  _369
REMARK  157  A    between atoms: _373  and  _375
REMARK  158  A    between atoms: _375  and  _376
REMARK  159  A    between atoms: _375  and  _378
REMARK  160  A    between atoms: _378  and  _379
REMARK  161  A    between atoms: _379  and  _380
REMARK  162  A    between atoms: _382  and  _384
REMARK  163  A    between atoms: _384  and  _385
REMARK  164  A    between atoms: _384  and  _387
REMARK  165  A    between atoms: _387  and  _388
REMARK  166  A    between atoms: _391  and  _393
REMARK  167  A    between atoms: _393  and  _394
REMARK  168  A    between atoms: _396  and  _398
REMARK  169  A    between atoms: _398  and  _399
REMARK  170  A    between atoms: _401  and  _403
REMARK  171  A    between atoms: _403  and  _404
REMARK  172  A    between atoms: _403  and  _406
REMARK  173  A    between atoms: _406  and  _407
REMARK  174  A    between atoms: _410  and  _412
REMARK  175  A    between atoms: _412  and  _413
REMARK  176  A    between atoms: _415  and  _417
REMARK  177  A    between atoms: _417  and  _418
REMARK  178  A    between atoms: _420  and  _422
REMARK  179  A    between atoms: _422  and  _423
REMARK  180  A    between atoms: _422  and  _425
REMARK  181  A    between atoms: _425  and  _426
REMARK  182  A    between atoms: _432  and  _434
REMARK  183  A    between atoms: _434  and  _435
REMARK  184  A    between atoms: _434  and  _437
REMARK  185  A    between atoms: _437  and  _438
REMARK  186  A    between atoms: _441  and  _443
REMARK  187  A    between atoms: _443  and  _444
REMARK  188  A    between atoms: _443  and  _446
REMARK  189  A    between atoms: _446  and  _447
REMARK  190  A    between atoms: _450  and  _452
REMARK  191  A    between atoms: _452  and  _453
REMARK  192  A    between atoms: _452  and  _455
REMARK  193  A    between atoms: _455  and  _456
REMARK  194  A    between atoms: _460  and  _461
REMARK  195  A    between atoms: _466  and  _468
REMARK  196  A    between atoms: _468  and  _469
REMARK  197  A    between atoms: _468  and  _471
REMARK  198  A    between atoms: _474  and  _476
REMARK  199  A    between atoms: _476  and  _477
REMARK  200  A    between atoms: _476  and  _479
REMARK  201  A    between atoms: _479  and  _480
REMARK  202  A    between atoms: _485  and  _487
REMARK  203  A    between atoms: _487  and  _488
REMARK  204  A    between atoms: _487  and  _490
REMARK  205  A    between atoms: _490  and  _491
REMARK  206  A    between atoms: _494  and  _496
REMARK  207  A    between atoms: _496  and  _497
REMARK  208  A    between atoms: _496  and  _499
REMARK  209  A    between atoms: _499  and  _500
REMARK  210  A    between atoms: _503  and  _505
REMARK  211  A    between atoms: _505  and  _506
REMARK  212  A    between atoms: _508  and  _510
REMARK  213  A    between atoms: _510  and  _511
REMARK  214  A    between atoms: _510  and  _513
REMARK  215  A    between atoms: _513  and  _514
REMARK  216  A    between atoms: _514  and  _515
REMARK  217  A    between atoms: _515  and  _516
REMARK  218  A    between atoms: _525  and  _527
REMARK  219  A    between atoms: _527  and  _528
REMARK  220  A    between atoms: _527  and  _530
REMARK  221  A    between atoms: _530  and  _531
REMARK                            x       y       z     vdW  Elec       q    Type
REMARK                         _______ _______ _______ _____ _____    ______ ____
ROOT
ATOM      1  C   GLY A   5      19.624  31.073  20.326  0.00  0.00    +0.243 C 
ATOM      2  N   ALA A   6      18.344  30.790  20.558  0.00  0.00    -0.297 N 
ATOM      3  H   ALA A   6      18.120  29.886  21.022  0.00  0.00    +0.150 HD
ATOM      4  O   GLY A   5      20.016  32.127  19.808  0.00  0.00    -0.273 OA
ENDROOT
BRANCH   2   5
ATOM      5  CA  ALA A   6      17.238  31.669  20.202  0.00  0.00    +0.149 C 
ATOM      6  CB  ALA A   6      16.148  30.860  19.511  0.00  0.00    +0.031 C 
BRANCH   5   7
ATOM      7  C   ALA A   6      16.674  32.369  21.444  0.00  0.00    +0.241 C 
ATOM      8  O   ALA A   6      16.161  31.701  22.344  0.00  0.00    -0.273 OA
ATOM      9  N   ASP A   7      16.750  33.701  21.490  0.00  0.00    -0.297 N 
ATOM     10  H   ASP A   7      17.239  34.208  20.725  0.00  0.00    +0.150 HD
BRANCH   9  11
ATOM     11  CA  ASP A   7      16.157  34.472  22.601  0.00  0.00    +0.160 C 
BRANCH  11  12
ATOM     12  C   ASP A   7      14.642  34.285  22.618  0.00  0.00    +0.241 C 
ATOM     13  O   ASP A   7      14.028  34.147  23.683  0.00  0.00    -0.273 OA
ATOM     14  N   ASP A   8      14.066  34.314  21.418  0.00  0.00    -0.297 N 
ATOM     15  H   ASP A   8      14.688  34.348  20.585  0.00  0.00    +0.150 HD
BRANCH  14  16
ATOM     16  CA  ASP A   8      12.625  34.302  21.187  0.00  0.00    +0.160 C 
BRANCH  16  17
ATOM     17  C   ASP A   8      12.198  33.072  20.382  0.00  0.00    +0.241 C 
ATOM     18  N   THR A   9      10.901  32.797  20.425  0.00  0.00    -0.295 N 
ATOM     19  H   THR A   9      10.297  33.399  21.020  0.00  0.00    +0.150 HD
ATOM     20  O   ASP A   8      13.021  32.392  19.762  0.00  0.00    -0.273 OA
BRANCH  18  21
ATOM     21  CA  THR A   9      10.266  31.707  19.693  0.00  0.00    +0.176 C 
BRANCH  21  22
ATOM     22  C   THR A   9       9.753  32.208  18.337  0.00  0.00    +0.243 C 
ATOM     23  O   THR A   9       8.979  33.176  18.249  0.00  0.00    -0.273 OA
ATOM     24  N   VAL A  10      10.202  31.541  17.283  0.00  0.00    -0.298 N 
ATOM     25  H   VAL A  10      10.796  30.702  17.438  0.00  0.00    +0.150 HD
BRANCH  24  26
ATOM     26  CA  VAL A  10       9.895  31.939  15.915  0.00  0.00    +0.137 C 
BRANCH  26  27
ATOM     27  CB  VAL A  10      11.152  32.389  15.156  0.00  0.00    +0.026 C 
ATOM     28  CG2 VAL A  10      12.055  33.248  16.049  0.00  0.00    +0.002 C 
ATOM     29  CG1 VAL A  10      10.761  33.159  13.888  0.00  0.00    +0.002 C 
ENDBRANCH  26  27
BRANCH  26  30
ATOM     30  C   VAL A  10       9.231  30.773  15.182  0.00  0.00    +0.227 C 
ATOM     31  O   VAL A  10       9.823  29.696  15.021  0.00  0.00    -0.286 OA
ENDBRANCH  26  30
ENDBRANCH  24  26
ENDBRANCH  21  22
BRANCH  21  32
ATOM     32  CB  THR A   9       9.133  31.079  20.537  0.00  0.00    +0.137 C 
ATOM     33  CG2 THR A   9       8.369  29.987  19.776  0.00  0.00    +0.034 C 
BRANCH  32  34
ATOM     34  OG1 THR A   9       9.712  30.484  21.703  0.00  0.00    -0.382 OA
ATOM     35  HG1 THR A   9      10.180  31.180  22.229  0.00  0.00    +0.210 HD
ENDBRANCH  32  34
ENDBRANCH  21  32
ENDBRANCH  18  21
ENDBRANCH  16  17
BRANCH  16  36
ATOM     36  CB  ASP A   8      12.214  35.566  20.423  0.00  0.00    +0.143 C 
BRANCH  36  37
ATOM     37  CG  ASP A   8      12.598  36.846  21.150  0.00  0.00    +0.367 C 
ATOM     38  OD2 ASP A   8      12.580  36.847  22.399  0.00  0.00    -0.246 OA
ATOM     39  OD1 ASP A   8      12.890  37.858  20.474  0.00  0.00    -0.246 OA
ENDBRANCH  36  37
ENDBRANCH  16  36
ENDBRANCH  14  16
ENDBRANCH  11  12
BRANCH  11  40
ATOM     40  CB  ASP A   7      16.393  35.976  22.452  0.00  0.00    +0.143 C 
BRANCH  40  41
ATOM     41  CG  ASP A   7      17.843  36.369  22.538  0.00  0.00    +0.367 C 
ATOM     42  OD2 ASP A   7      18.683  35.586  23.027  0.00  0.00    -0.246 OA
ATOM     43  OD1 ASP A   7      18.131  37.502  22.117  0.00  0.00    -0.246 OA
ENDBRANCH  40  41
ENDBRANCH  11  40
ENDBRANCH   9  11
ENDBRANCH   5   7
ENDBRANCH   2   5
BRANCH   1  44
ATOM     44  CA  GLY A   5      20.627  30.005  20.735  0.00  0.00    +0.176 C 
BRANCH  44  47
ATOM     45  C   THR A   4      19.828  28.783  22.711  0.00  0.00    +0.243 C 
ATOM     46  O   THR A   4      20.079  29.709  23.475  0.00  0.00    -0.273 OA
ATOM     47  N   GLY A   5      20.080  28.825  21.400  0.00  0.00    -0.295 N 
ATOM     48  H   GLY A   5      19.878  27.981  20.828  0.00  0.00    +0.150 HD
BRANCH  45  49
ATOM     49  CA  THR A   4      19.191  27.502  23.245  0.00  0.00    +0.176 C 
BRANCH  49  51
ATOM     50  C   ASP A   3      17.497  27.111  21.531  0.00  0.00    +0.241 C 
ATOM     51  N   THR A   4      18.590  26.712  22.176  0.00  0.00    -0.295 N 
ATOM     52  H   THR A   4      19.030  25.808  21.910  0.00  0.00    +0.150 HD
ATOM     53  O   ASP A   3      16.944  28.205  21.732  0.00  0.00    -0.273 OA
BRANCH  50  54
ATOM     54  CA  ASP A   3      17.001  26.141  20.455  0.00  0.00    +0.160 C 
BRANCH  54  56
ATOM     55  C   LEU A   2      15.909  24.006  20.853  0.00  0.00    +0.241 C 
ATOM     56  N   ASP A   3      15.866  25.337  20.874  0.00  0.00    -0.297 N 
ATOM     57  H   ASP A   3      14.999  25.812  21.198  0.00  0.00    +0.150 HD
ATOM     58  O   LEU A   2      16.958  23.357  20.732  0.00  0.00    -0.273 OA
BRANCH  55  59
ATOM     59  CA  LEU A   2      14.570  23.280  20.984  0.00  0.00    +0.149 C 
BRANCH  59  61
ATOM     60  C   LEU A   1      13.756  23.521  18.720  0.00  0.00    +0.238 C 
ATOM     61  N   LEU A   2      14.262  22.737  19.666  0.00  0.00    -0.297 N 
ATOM     62  H   LEU A   2      14.439  21.732  19.466  0.00  0.00    +0.150 HD
ATOM     63  O   LEU A   1      13.354  24.657  18.942  0.00  0.00    -0.274 OA
BRANCH  60  64
ATOM     64  CA  LEU A   1      13.758  22.984  17.302  0.00  0.00    +0.145 C 
BRANCH  64  65
ATOM     65  N   LEU A   1      12.446  23.106  16.678  0.00  0.00    -0.238 NA
ATOM     66  H   LEU A   1      12.286  23.885  16.008  0.00  0.00    +0.142 HD
ENDBRANCH  64  65
BRANCH  64  67
ATOM     67  CB  LEU A   1      14.797  23.825  16.554  0.00  0.00    +0.026 C 
BRANCH  67  68
ATOM     68  CG  LEU A   1      15.424  23.352  15.258  0.00  0.00    +0.002 C 
ATOM     69  CD2 LEU A   1      16.155  22.042  15.472  0.00  0.00    +0.000 C 
ATOM     70  CD1 LEU A   1      16.356  24.447  14.755  0.00  0.00    +0.000 C 
ENDBRANCH  67  68
ENDBRANCH  64  67
ENDBRANCH  60  64
ENDBRANCH  59  61
BRANCH  59  71
ATOM     71  CB  LEU A   2      14.672  22.170  22.018  0.00  0.00    +0.029 C 
BRANCH  71  72
ATOM     72  CG  LEU A   2      13.414  21.340  22.276  0.00  0.00    +0.002 C 
ATOM     73  CD2 LEU A   2      13.732  20.321  23.356  0.00  0.00    +0.000 C 
ATOM     74  CD1 LEU A   2      12.234  22.219  22.675  0.00  0.00    +0.000 C 
ENDBRANCH  71  72
ENDBRANCH  59  71
ENDBRANCH  55  59
ENDBRANCH  54  56
BRANCH  54  75
ATOM     75  CB  ASP A   3      16.645  26.892  19.177  0.00  0.00    +0.143 C 
BRANCH  75  76
ATOM     76  CG  ASP A   3      17.848  27.564  18.535  0.00  0.00    +0.367 C 
ATOM     77  OD2 ASP A   3      18.972  27.504  19.092  0.00  0.00    -0.246 OA
ATOM     78  OD1 ASP A   3      17.651  28.154  17.456  0.00  0.00    -0.246 OA
ENDBRANCH  75  76
ENDBRANCH  54  75
ENDBRANCH  50  54
ENDBRANCH  49  51
BRANCH  49  79
ATOM     79  CB  THR A   4      20.238  26.676  24.005  0.00  0.00    +0.137 C 
ATOM     80  CG2 THR A   4      19.589  25.467  24.608  0.00  0.00    +0.034 C 
BRANCH  79  81
ATOM     81  OG1 THR A   4      21.294  26.271  23.115  0.00  0.00    -0.382 OA
ATOM     82  HG1 THR A   4      21.729  27.074  22.734  0.00  0.00    +0.210 HD
ENDBRANCH  79  81
ENDBRANCH  49  79
ENDBRANCH  45  49
ENDBRANCH  44  47
ENDBRANCH   1  44
TORSDOF 35
REMARK  Name = ../refined-set-2016/2qi6/2qi6_pocket.pdb
REMARK  221 active torsions:
REMARK  status: ('A' for Active; 'I' for Inactive)
REMARK    1  A    between atoms: _1  and  _3
REMARK    2  A    between atoms: _3  and  _4
REMARK    3  A    between atoms: _3  and  _6
REMARK    4  A    between atoms: _6  and  _7
REMARK    5  A    between atoms: _7  and  _8
REMARK    6  A    between atoms: _8  and  _9
REMARK    7  A    between atoms: _18  and  _20
REMARK    8  A    between atoms: _20  and  _21
REMARK    9  A    between atoms: _20  and  _23
REMARK   10  A    between atoms: _23  and  _24
REMARK   11  A    between atoms: _27  and  _29
REMARK   12  A    between atoms: _29  and  _30
REMARK   13  A    between atoms: _29  and  _32
REMARK   14  A    between atoms: _32  and  _33
REMARK   15  A    between atoms: _36  and  _38
REMARK   16  A    between atoms: _38  and  _39
REMARK   17  A    between atoms: _38  and  _41
REMARK   18  A    between atoms: _41  and  _42
REMARK   19  A    between atoms: _45  and  _47
REMARK   20  A    between atoms: _47  and  _48
REMARK   21  A    between atoms: _47  and  _50
REMARK   22  A    between atoms: _50  and  _51
REMARK   23  A    between atoms: _54  and  _56
REMARK   24  A    between atoms: _56  and  _57
REMARK   25  A    between atoms: _59  and  _61
REMARK   26  A    between atoms: _61  and  _62
REMARK   27  A    between atoms: _65  and  _67
REMARK   28  A    between atoms: _67  and  _68
REMARK   29  A    between atoms: _67  and  _70
REMARK   30  A    between atoms: _70  and  _71
REMARK   31  A    between atoms: _74  and  _76
REMARK   32  A    between atoms: _76  and  _77
REMARK   33  A    between atoms: _76  and  _79
REMARK   34  A    between atoms: _79  and  _80
REMARK   35  A    between atoms: _83  and  _85
REMARK   36  A    between atoms: _85  and  _86
REMARK   37  A    between atoms: _85  and  _88
REMARK   38  A    between atoms: _88  and  _89
REMARK   39  A    between atoms: _92  and  _94
REMARK   40  A    between atoms: _94  and  _95
REMARK   41  A    between atoms: _94  and  _97
REMARK   42  A    between atoms: _100  and  _102
REMARK   43  A    between atoms: _102  and  _103
REMARK   44  A    between atoms: _102  and  _105
REMARK   45  A    between atoms: _105  and  _106
REMARK   46  A    between atoms: _106  and  _107
REMARK   47  A    between atoms: _107  and  _108
REMARK   48  A    between atoms: _108  and  _109
REMARK   49  A    between atoms: _113  and  _115
REMARK   50  A    between atoms: _115  and  _116
REMARK   51  A    between atoms: _115  and  _118
REMARK   52  A    between atoms: _118  and  _119
REMARK   53  A    between atoms: _119  and  _120
REMARK   54  A    between atoms: _122  and  _124
REMARK   55  A    between atoms: _124  and  _125
REMARK   56  A    between atoms: _124  and  _127
REMARK   57  A    between atoms: _127  and  _128
REMARK   58  A    between atoms: _131  and  _133
REMARK   59  A    between atoms: _133  and  _134
REMARK   60  A    between atoms: _136  and  _138
REMARK   61  A    between atoms: _138  and  _139
REMARK   62  A    between atoms: _141  and  _143
REMARK   63  A    between atoms: _143  and  _144
REMARK   64  A    between atoms: _143  and  _146
REMARK   65  A    between atoms: _146  and  _147
REMARK   66  A    between atoms: _150  and  _152
REMARK   67  A    between atoms: _152  and  _153
REMARK   68  A    between atoms: _155  and  _157
REMARK   69  A    between atoms: _157  and  _158
REMARK   70  A    between atoms: _160  and  _162
REMARK   71  A    between atoms: _162  and  _163
REMARK   72  A    between atoms: _162  and  _165
REMARK   73  A    between atoms: _165  and  _166
REMARK   74  A    between atoms: _169  and  _171
REMARK   75  A    between atoms: _171  and  _172
REMARK   76  A    between atoms: _171  and  _174
REMARK   77  A    between atoms: _177  and  _179
REMARK   78  A    between atoms: _179  and  _180
REMARK   79  A    between atoms: _179  and  _182
REMARK   80  A    between atoms: _182  and  _183
REMARK   81  A    between atoms: _186  and  _188
REMARK   82  A    between atoms: _188  and  _189
REMARK   83  A    between atoms: _188  and  _191
REMARK   84  A    between atoms: _191  and  _192
REMARK   85  A    between atoms: _196  and  _197
REMARK   86  A    between atoms: _202  and  _204
REMARK   87  A    between atoms: _204  and  _205
REMARK   88  A    between atoms: _204  and  _207
REMARK   89  A    between atoms: _210  and  _212
REMARK   90  A    between atoms: _212  and  _213
REMARK   91  A    between atoms: _212  and  _215
REMARK   92  A    between atoms: _215  and  _216
REMARK   93  A    between atoms: _221  and  _223
REMARK   94  A    between atoms: _223  and  _224
REMARK   95  A    between atoms: _223  and  _226
REMARK   96  A    between atoms: _226  and  _227
REMARK   97  A    between atoms: _230  and  _232
REMARK   98  A    between atoms: _232  and  _233
REMARK   99  A    between atoms: _232  and  _235
REMARK  100  A    between atoms: _235  and  _236
REMARK  101  A    between atoms: _239  and  _241
REMARK  102  A    between atoms: _241  and  _242
REMARK  103  A    between atoms: _244  and  _246
REMARK  104  A    between atoms: _246  and  _247
REMARK  105  A    between atoms: _246  and  _249
REMARK  106  A    between atoms: _249  and  _250
REMARK  107  A    between atoms: _250  and  _251
REMARK  108  A    between atoms: _251  and  _252
REMARK  109  A    between atoms: _261  and  _263
REMARK  110  A    between atoms: _263  and  _264
REMARK  111  A    between atoms: _263  and  _266
REMARK  112  A    between atoms: _266  and  _267
REMARK  113  A    between atoms: _267  and  _268
REMARK  114  A    between atoms: _268  and  _269
REMARK  115  A    between atoms: _278  and  _280
REMARK  116  A    between atoms: _280  and  _281
REMARK  117  A    between atoms: _280  and  _283
REMARK  118  A    between atoms: _283  and  _284
REMARK  119  A    between atoms: _287  and  _289
REMARK  120  A    between atoms: _289  and  _290
REMARK  121  A    between atoms: _289  and  _292
REMARK  122  A    between atoms: _292  and  _293
REMARK  123  A    between atoms: _296  and  _298
REMARK  124  A    between atoms: _298  and  _299
REMARK  125  A    between atoms: _298  and  _301
REMARK  126  A    between atoms: _301  and  _302
REMARK  127  A    between atoms: _305  and  _307
REMARK  128  A    between atoms: _307  and  _308
REMARK  129  A    between atoms: _307  and  _310
REMARK  130  A    between atoms: _310  and  _311
REMARK  131  A    between atoms: _314  and  _316
REMARK  132  A    between atoms: _316  and  _317
REMARK  133  A    between atoms: _319  and  _321
REMARK  134  A    between atoms: _321  and  _322
REMARK  135  A    between atoms: _325  and  _327
REMARK  136  A    between atoms: _327  and  _328
REMARK  137  A    between atoms: _327  and  _330
REMARK  138  A    between atoms: _330  and  _331
REMARK  139  A    between atoms: _334  and  _336
REMARK  140  A    between atoms: _336  and  _337
REMARK  141  A    between atoms: _336  and  _339
REMARK  142  A    between atoms: _339  and  _340
REMARK  143  A    between atoms: _343  and  _345
REMARK  144  A    between atoms: _345  and  _346
REMARK  145  A    between atoms: _345  and  _348
REMARK  146  A    between atoms: _348  and  _349
REMARK  147  A    between atoms: _352  and  _354
REMARK  148  A    between atoms: _354  and  _355
REMARK  149  A    between atoms: _354  and  _357
REMARK  150  A    between atoms: _360  and  _362
REMARK  151  A    between atoms: _362  and  _363
REMARK  152  A    between atoms: _362  and  _365
REMARK  153  A    between atoms: _365  and  _366
REMARK  154  A    between atoms: _366  and  _367
REMARK  155  A    between atoms: _367  and  _368
REMARK  156  A    between atoms: _368  and  _369
REMARK  157  A    between atoms: _373  and  _375
REMARK  158  A    between atoms: _375  and  _376
REMARK  159  A    between atoms: _375  and  _378
REMARK  160  A    between atoms: _378  and  _379
REMARK  161  A    between atoms: _379  and  _380
REMARK  162  A    between atoms: _382  and  _384
REMARK  163  A    between atoms: _384  and  _385
REMARK  164  A    between atoms: _384  and  _387
REMARK  165  A    between atoms: _387  and  _388
REMARK  166  A    between atoms: _391  and  _393
REMARK  167  A    between atoms: _393  and  _394
REMARK  168  A    between atoms: _396  and  _398
REMARK  169  A    between atoms: _398  and  _399
REMARK  170  A    between atoms: _401  and  _403
REMARK  171  A    between atoms: _403  and  _404
REMARK  172  A    between atoms: _403  and  _406
REMARK  173  A    between atoms: _406  and  _407
REMARK  174  A    between atoms: _410  and  _412
REMARK  175  A    between atoms: _412  and  _413
REMARK  176  A    between atoms: _415  and  _417
REMARK  177  A    between atoms: _417  and  _418
REMARK  178  A    between atoms: _420  and  _422
REMARK  179  A    between atoms: _422  and  _423
REMARK  180  A    between atoms: _422  and  _425
REMARK  181  A    between atoms: _425  and  _426
REMARK  182  A    between atoms: _432  and  _434
REMARK  183  A    between atoms: _434  and  _435
REMARK  184  A    between atoms: _434  and  _437
REMARK  185  A    between atoms: _437  and  _438
REMARK  186  A    between atoms: _441  and  _443
REMARK  187  A    between atoms: _443  and  _444
REMARK  188  A    between atoms: _443  and  _446
REMARK  189  A    between atoms: _446  and  _447
REMARK  190  A    between atoms: _450  and  _452
REMARK  191  A    between atoms: _452  and  _453
REMARK  192  A    between atoms: _452  and  _455
REMARK  193  A    between atoms: _455  and  _456
REMARK  194  A    between atoms: _460  and  _461
REMARK  195  A    between atoms: _466  and  _468
REMARK  196  A    between atoms: _468  and  _469
REMARK  197  A    between atoms: _468  and  _471
REMARK  198  A    between atoms: _474  and  _476
REMARK  199  A    between atoms: _476  and  _477
REMARK  200  A    between atoms: _476  and  _479
REMARK  201  A    between atoms: _479  and  _480
REMARK  202  A    between atoms: _485  and  _487
REMARK  203  A    between atoms: _487  and  _488
REMARK  204  A    between atoms: _487  and  _490
REMARK  205  A    between atoms: _490  and  _491
REMARK  206  A    between atoms: _494  and  _496
REMARK  207  A    between atoms: _496  and  _497
REMARK  208  A    between atoms: _496  and  _499
REMARK  209  A    between atoms: _499  and  _500
REMARK  210  A    between atoms: _503  and  _505
REMARK  211  A    between atoms: _505  and  _506
REMARK  212  A    between atoms: _508  and  _510
REMARK  213  A    between atoms: _510  and  _511
REMARK  214  A    between atoms: _510  and  _513
REMARK  215  A    between atoms: _513  and  _514
REMARK  216  A    between atoms: _514  and  _515
REMARK  217  A    between atoms: _515  and  _516
REMARK  218  A    between atoms: _525  and  _527
REMARK  219  A    between atoms: _527  and  _528
REMARK  220  A    between atoms: _527  and  _530
REMARK  221  A    between atoms: _530  and  _531
REMARK                            x       y       z     vdW  Elec       q    Type
REMARK                         _______ _______ _______ _____ _____    ______ ____
ROOT
ATOM      1  C   GLY A   5      21.485  35.836  11.380  0.00  0.00    +0.243 C 
ATOM      2  N   ILE A   6      21.948  34.614  11.144  0.00  0.00    -0.297 N 
ATOM      3  H   ILE A   6      21.655  33.826  11.755  0.00  0.00    +0.150 HD
ATOM      4  O   GLY A   5      21.798  36.815  10.700  0.00  0.00    -0.273 OA
ENDROOT
BRANCH   2   5
ATOM      5  CA  ILE A   6      22.861  34.367  10.039  0.00  0.00    +0.149 C 
BRANCH   5   6
ATOM      6  C   ILE A   6      22.127  34.664   8.734  0.00  0.00    +0.241 C 
ATOM      7  O   ILE A   6      21.012  34.195   8.526  0.00  0.00    -0.273 OA
ATOM      8  N   GLY A   7      22.735  35.503   7.898  0.00  0.00    -0.295 N 
ATOM      9  H   GLY A   7      23.656  35.902   8.170  0.00  0.00    +0.150 HD
BRANCH   8  10
ATOM     10  CA  GLY A   7      22.158  35.881   6.620  0.00  0.00    +0.176 C 
BRANCH  10  11
ATOM     11  C   GLY A   7      21.403  37.194   6.620  0.00  0.00    +0.243 C 
ATOM     12  N   GLY A   8      21.009  37.670   7.796  0.00  0.00    -0.295 N 
ATOM     13  H   GLY A   8      21.164  37.087   8.643  0.00  0.00    +0.150 HD
ATOM     14  O   GLY A   7      21.166  37.753   5.555  0.00  0.00    -0.273 OA
BRANCH  12  15
ATOM     15  CA  GLY A   8      20.370  38.969   7.955  0.00  0.00    +0.176 C 
BRANCH  15  16
ATOM     16  C   GLY A   8      19.077  38.865   8.730  0.00  0.00    +0.243 C 
ATOM     17  O   GLY A   8      18.936  38.018   9.621  0.00  0.00    -0.273 OA
ATOM     18  N   PHE A   9      18.125  39.728   8.376  0.00  0.00    -0.297 N 
ATOM     19  H   PHE A   9      18.259  40.294   7.514  0.00  0.00    +0.150 HD
BRANCH  18  20
ATOM     20  CA  PHE A   9      16.903  39.910   9.151  0.00  0.00    +0.153 C 
BRANCH  20  21
ATOM     21  C   PHE A   9      15.693  39.400   8.381  0.00  0.00    +0.241 C 
ATOM     22  N   ILE A  10      14.685  38.987   9.143  0.00  0.00    -0.298 N 
ATOM     23  H   ILE A  10      14.851  38.866  10.163  0.00  0.00    +0.150 HD
ATOM     24  O   PHE A   9      15.682  39.381   7.132  0.00  0.00    -0.273 OA
BRANCH  22  25
ATOM     25  CA  ILE A  10      13.360  38.697   8.615  0.00  0.00    +0.137 C 
BRANCH  25  26
ATOM     26  C   ILE A  10      12.305  39.479   9.381  0.00  0.00    +0.227 C 
ATOM     27  O   ILE A  10      12.503  39.835  10.551  0.00  0.00    -0.286 OA
ENDBRANCH  25  26
BRANCH  25  28
ATOM     28  CB  ILE A  10      13.015  37.187   8.653  0.00  0.00    +0.026 C 
ATOM     29  CG2 ILE A  10      13.968  36.426   7.752  0.00  0.00    +0.002 C 
BRANCH  28  30
ATOM     30  CG1 ILE A  10      13.052  36.635  10.078  0.00  0.00    +0.002 C 
ATOM     31  CD1 ILE A  10      12.288  35.344  10.224  0.00  0.00    +0.000 C 
ENDBRANCH  28  30
ENDBRANCH  25  28
ENDBRANCH  22  25
ENDBRANCH  20  21
BRANCH  20  32
ATOM     32  CB  PHE A   9      16.707  41.394   9.501  0.00  0.00    +0.055 C 
BRANCH  32  33
ATOM     33  CG  PHE A   9      17.555  41.861  10.650  0.00  0.00    -0.020 A 
ATOM     34  CD2 PHE A   9      17.013  42.051  11.908  0.00  0.00    -0.004 A 
ATOM     35  CE2 PHE A   9      17.814  42.461  12.959  0.00  0.00    -0.000 A 
ATOM     36  CZ  PHE A   9      19.168  42.699  12.760  0.00  0.00    -0.000 A 
ATOM     37  CE1 PHE A   9      19.720  42.508  11.516  0.00  0.00    -0.000 A 
ATOM     38  CD1 PHE A   9      18.920  42.084  10.476  0.00  0.00    -0.004 A 
ENDBRANCH  32  33
ENDBRANCH  20  32
ENDBRANCH  18  20
ENDBRANCH  15  16
ENDBRANCH  12  15
ENDBRANCH  10  11
ENDBRANCH   8  10
ENDBRANCH   5   6
BRANCH   5  39
ATOM     39  CB  ILE A   6      23.436  32.932  10.069  0.00  0.00    +0.027 C 
ATOM     40  CG2 ILE A   6      24.080  32.568   8.728  0.00  0.00    +0.002 C 
BRANCH  39  41
ATOM     41  CG1 ILE A   6      24.488  32.830  11.187  0.00  0.00    +0.002 C 
ATOM     42  CD1 ILE A   6      24.845  31.422  11.576  0.00  0.00    +0.000 C 
ENDBRANCH  39  41
ENDBRANCH   5  39
ENDBRANCH   2   5
BRANCH   1  43
ATOM     43  CA  GLY A   5      20.510  35.980  12.523  0.00  0.00    +0.176 C 
BRANCH  43  46
ATOM     44  C   GLY A   4      19.021  37.739  13.287  0.00  0.00    +0.243 C 
ATOM     45  O   GLY A   4      19.053  37.350  14.452  0.00  0.00    -0.273 OA
ATOM     46  N   GLY A   5      19.633  37.117  12.290  0.00  0.00    -0.295 N 
ATOM     47  H   GLY A   5      19.483  37.450  11.316  0.00  0.00    +0.150 HD
BRANCH  44  48
ATOM     48  CA  GLY A   4      18.287  39.003  12.898  0.00  0.00    +0.176 C 
BRANCH  48  50
ATOM     49  C   ILE A   3      15.891  39.279  13.091  0.00  0.00    +0.241 C 
ATOM     50  N   GLY A   4      17.091  39.235  13.666  0.00  0.00    -0.295 N 
ATOM     51  H   GLY A   4      17.166  39.371  14.694  0.00  0.00    +0.150 HD
ATOM     52  O   ILE A   3      15.670  39.002  11.905  0.00  0.00    -0.273 OA
BRANCH  49  53
ATOM     53  CA  ILE A   3      14.777  39.723  14.015  0.00  0.00    +0.149 C 
BRANCH  53  56
ATOM     54  C   MET A   2      13.430  41.722  13.592  0.00  0.00    +0.241 C 
ATOM     55  O   MET A   2      13.851  42.313  14.589  0.00  0.00    -0.273 OA
ATOM     56  N   ILE A   3      13.775  40.478  13.268  0.00  0.00    -0.297 N 
ATOM     57  H   ILE A   3      13.314  40.027  12.452  0.00  0.00    +0.150 HD
BRANCH  54  58
ATOM     58  CA  MET A   2      12.406  42.391  12.689  0.00  0.00    +0.149 C 
BRANCH  58  60
ATOM     59  C   LYS A   1      10.123  42.703  13.407  0.00  0.00    +0.238 C 
ATOM     60  N   MET A   2      11.405  43.005  13.550  0.00  0.00    -0.297 N 
ATOM     61  H   MET A   2      11.698  43.684  14.281  0.00  0.00    +0.150 HD
ATOM     62  O   LYS A   1       9.710  42.023  12.474  0.00  0.00    -0.274 OA
BRANCH  59  63
ATOM     63  CA  LYS A   1       9.161  43.229  14.466  0.00  0.00    +0.145 C 
BRANCH  63  64
ATOM     64  N   LYS A   1       7.839  43.307  13.872  0.00  0.00    -0.238 NA
ATOM     65  H   LYS A   1       7.611  42.682  13.072  0.00  0.00    +0.142 HD
ENDBRANCH  63  64
BRANCH  63  66
ATOM     66  CB  LYS A   1       9.109  42.276  15.663  0.00  0.00    +0.026 C 
BRANCH  66  67
ATOM     67  CG  LYS A   1      10.342  42.260  16.523  0.00  0.00    -0.000 C 
BRANCH  67  68
ATOM     68  CD  LYS A   1      10.180  41.327  17.716  0.00  0.00    -0.024 C 
BRANCH  68  69
ATOM     69  CE  LYS A   1      11.522  41.099  18.386  0.00  0.00    -0.086 C 
BRANCH  69  70
ATOM     70  NZ  LYS A   1      11.465  41.263  19.855  0.00  0.00    +0.380 N 
ATOM     71  HZ1 LYS A   1      12.409  41.096  20.258  0.00  0.00    -0.089 HD
ATOM     72  HZ2 LYS A   1      10.790  40.579  20.253  0.00  0.00    -0.089 HD
ATOM     73  HZ3 LYS A   1      11.156  42.229  20.083  0.00  0.00    -0.089 HD
ENDBRANCH  69  70
ENDBRANCH  68  69
ENDBRANCH  67  68
ENDBRANCH  66  67
ENDBRANCH  63  66
ENDBRANCH  59  63
ENDBRANCH  58  60
BRANCH  58  74
ATOM     74  CB  MET A   2      13.029  43.434  11.756  0.00  0.00    +0.041 C 
BRANCH  74  75
ATOM     75  CG  MET A   2      11.980  44.081  10.839  0.00  0.00    +0.060 C 
BRANCH  75  76
ATOM     76  SD  MET A   2      12.593  45.199   9.552  0.00  0.00    -0.139 S 
ATOM     77  CE  MET A   2      13.919  44.240   8.834  0.00  0.00    +0.069 C 
ENDBRANCH  75  76
ENDBRANCH  74  75
ENDBRANCH  58  74
ENDBRANCH  54  58
ENDBRANCH  53  56
BRANCH  53  78
ATOM     78  CB  ILE A   3      14.198  38.523  14.776  0.00  0.00    +0.027 C 
ATOM     79  CG2 ILE A   3      13.307  39.025  15.911  0.00  0.00    +0.002 C 
BRANCH  78  80
ATOM     80  CG1 ILE A   3      13.424  37.590  13.844  0.00  0.00    +0.002 C 
ATOM     81  CD1 ILE A   3      13.037  36.273  14.500  0.00  0.00    +0.000 C 
ENDBRANCH  78  80
ENDBRANCH  53  78
ENDBRANCH  49  53
ENDBRANCH  48  50
ENDBRANCH  44  48
ENDBRANCH  43  46
ENDBRANCH   1  43
TORSDOF 36
REMARK  Name = ../refined-set-2016/2qi6/2qi6_pocket.pdb
REMARK  221 active torsions:
REMARK  status: ('A' for Active; 'I' for Inactive)
REMARK    1  A    between atoms: _1  and  _3
REMARK    2  A    between atoms: _3  and  _4
REMARK    3  A    between atoms: _3  and  _6
REMARK    4  A    between atoms: _6  and  _7
REMARK    5  A    between atoms: _7  and  _8
REMARK    6  A    between atoms: _8  and  _9
REMARK    7  A    between atoms: _18  and  _20
REMARK    8  A    between atoms: _20  and  _21
REMARK    9  A    between atoms: _20  and  _23
REMARK   10  A    between atoms: _23  and  _24
REMARK   11  A    between atoms: _27  and  _29
REMARK   12  A    between atoms: _29  and  _30
REMARK   13  A    between atoms: _29  and  _32
REMARK   14  A    between atoms: _32  and  _33
REMARK   15  A    between atoms: _36  and  _38
REMARK   16  A    between atoms: _38  and  _39
REMARK   17  A    between atoms: _38  and  _41
REMARK   18  A    between atoms: _41  and  _42
REMARK   19  A    between atoms: _45  and  _47
REMARK   20  A    between atoms: _47  and  _48
REMARK   21  A    between atoms: _47  and  _50
REMARK   22  A    between atoms: _50  and  _51
REMARK   23  A    between atoms: _54  and  _56
REMARK   24  A    between atoms: _56  and  _57
REMARK   25  A    between atoms: _59  and  _61
REMARK   26  A    between atoms: _61  and  _62
REMARK   27  A    between atoms: _65  and  _67
REMARK   28  A    between atoms: _67  and  _68
REMARK   29  A    between atoms: _67  and  _70
REMARK   30  A    between atoms: _70  and  _71
REMARK   31  A    between atoms: _74  and  _76
REMARK   32  A    between atoms: _76  and  _77
REMARK   33  A    between atoms: _76  and  _79
REMARK   34  A    between atoms: _79  and  _80
REMARK   35  A    between atoms: _83  and  _85
REMARK   36  A    between atoms: _85  and  _86
REMARK   37  A    between atoms: _85  and  _88
REMARK   38  A    between atoms: _88  and  _89
REMARK   39  A    between atoms: _92  and  _94
REMARK   40  A    between atoms: _94  and  _95
REMARK   41  A    between atoms: _94  and  _97
REMARK   42  A    between atoms: _100  and  _102
REMARK   43  A    between atoms: _102  and  _103
REMARK   44  A    between atoms: _102  and  _105
REMARK   45  A    between atoms: _105  and  _106
REMARK   46  A    between atoms: _106  and  _107
REMARK   47  A    between atoms: _107  and  _108
REMARK   48  A    between atoms: _108  and  _109
REMARK   49  A    between atoms: _113  and  _115
REMARK   50  A    between atoms: _115  and  _116
REMARK   51  A    between atoms: _115  and  _118
REMARK   52  A    between atoms: _118  and  _119
REMARK   53  A    between atoms: _119  and  _120
REMARK   54  A    between atoms: _122  and  _124
REMARK   55  A    between atoms: _124  and  _125
REMARK   56  A    between atoms: _124  and  _127
REMARK   57  A    between atoms: _127  and  _128
REMARK   58  A    between atoms: _131  and  _133
REMARK   59  A    between atoms: _133  and  _134
REMARK   60  A    between atoms: _136  and  _138
REMARK   61  A    between atoms: _138  and  _139
REMARK   62  A    between atoms: _141  and  _143
REMARK   63  A    between atoms: _143  and  _144
REMARK   64  A    between atoms: _143  and  _146
REMARK   65  A    between atoms: _146  and  _147
REMARK   66  A    between atoms: _150  and  _152
REMARK   67  A    between atoms: _152  and  _153
REMARK   68  A    between atoms: _155  and  _157
REMARK   69  A    between atoms: _157  and  _158
REMARK   70  A    between atoms: _160  and  _162
REMARK   71  A    between atoms: _162  and  _163
REMARK   72  A    between atoms: _162  and  _165
REMARK   73  A    between atoms: _165  and  _166
REMARK   74  A    between atoms: _169  and  _171
REMARK   75  A    between atoms: _171  and  _172
REMARK   76  A    between atoms: _171  and  _174
REMARK   77  A    between atoms: _177  and  _179
REMARK   78  A    between atoms: _179  and  _180
REMARK   79  A    between atoms: _179  and  _182
REMARK   80  A    between atoms: _182  and  _183
REMARK   81  A    between atoms: _186  and  _188
REMARK   82  A    between atoms: _188  and  _189
REMARK   83  A    between atoms: _188  and  _191
REMARK   84  A    between atoms: _191  and  _192
REMARK   85  A    between atoms: _196  and  _197
REMARK   86  A    between atoms: _202  and  _204
REMARK   87  A    between atoms: _204  and  _205
REMARK   88  A    between atoms: _204  and  _207
REMARK   89  A    between atoms: _210  and  _212
REMARK   90  A    between atoms: _212  and  _213
REMARK   91  A    between atoms: _212  and  _215
REMARK   92  A    between atoms: _215  and  _216
REMARK   93  A    between atoms: _221  and  _223
REMARK   94  A    between atoms: _223  and  _224
REMARK   95  A    between atoms: _223  and  _226
REMARK   96  A    between atoms: _226  and  _227
REMARK   97  A    between atoms: _230  and  _232
REMARK   98  A    between atoms: _232  and  _233
REMARK   99  A    between atoms: _232  and  _235
REMARK  100  A    between atoms: _235  and  _236
REMARK  101  A    between atoms: _239  and  _241
REMARK  102  A    between atoms: _241  and  _242
REMARK  103  A    between atoms: _244  and  _246
REMARK  104  A    between atoms: _246  and  _247
REMARK  105  A    between atoms: _246  and  _249
REMARK  106  A    between atoms: _249  and  _250
REMARK  107  A    between atoms: _250  and  _251
REMARK  108  A    between atoms: _251  and  _252
REMARK  109  A    between atoms: _261  and  _263
REMARK  110  A    between atoms: _263  and  _264
REMARK  111  A    between atoms: _263  and  _266
REMARK  112  A    between atoms: _266  and  _267
REMARK  113  A    between atoms: _267  and  _268
REMARK  114  A    between atoms: _268  and  _269
REMARK  115  A    between atoms: _278  and  _280
REMARK  116  A    between atoms: _280  and  _281
REMARK  117  A    between atoms: _280  and  _283
REMARK  118  A    between atoms: _283  and  _284
REMARK  119  A    between atoms: _287  and  _289
REMARK  120  A    between atoms: _289  and  _290
REMARK  121  A    between atoms: _289  and  _292
REMARK  122  A    between atoms: _292  and  _293
REMARK  123  A    between atoms: _296  and  _298
REMARK  124  A    between atoms: _298  and  _299
REMARK  125  A    between atoms: _298  and  _301
REMARK  126  A    between atoms: _301  and  _302
REMARK  127  A    between atoms: _305  and  _307
REMARK  128  A    between atoms: _307  and  _308
REMARK  129  A    between atoms: _307  and  _310
REMARK  130  A    between atoms: _310  and  _311
REMARK  131  A    between atoms: _314  and  _316
REMARK  132  A    between atoms: _316  and  _317
REMARK  133  A    between atoms: _319  and  _321
REMARK  134  A    between atoms: _321  and  _322
REMARK  135  A    between atoms: _325  and  _327
REMARK  136  A    between atoms: _327  and  _328
REMARK  137  A    between atoms: _327  and  _330
REMARK  138  A    between atoms: _330  and  _331
REMARK  139  A    between atoms: _334  and  _336
REMARK  140  A    between atoms: _336  and  _337
REMARK  141  A    between atoms: _336  and  _339
REMARK  142  A    between atoms: _339  and  _340
REMARK  143  A    between atoms: _343  and  _345
REMARK  144  A    between atoms: _345  and  _346
REMARK  145  A    between atoms: _345  and  _348
REMARK  146  A    between atoms: _348  and  _349
REMARK  147  A    between atoms: _352  and  _354
REMARK  148  A    between atoms: _354  and  _355
REMARK  149  A    between atoms: _354  and  _357
REMARK  150  A    between atoms: _360  and  _362
REMARK  151  A    between atoms: _362  and  _363
REMARK  152  A    between atoms: _362  and  _365
REMARK  153  A    between atoms: _365  and  _366
REMARK  154  A    between atoms: _366  and  _367
REMARK  155  A    between atoms: _367  and  _368
REMARK  156  A    between atoms: _368  and  _369
REMARK  157  A    between atoms: _373  and  _375
REMARK  158  A    between atoms: _375  and  _376
REMARK  159  A    between atoms: _375  and  _378
REMARK  160  A    between atoms: _378  and  _379
REMARK  161  A    between atoms: _379  and  _380
REMARK  162  A    between atoms: _382  and  _384
REMARK  163  A    between atoms: _384  and  _385
REMARK  164  A    between atoms: _384  and  _387
REMARK  165  A    between atoms: _387  and  _388
REMARK  166  A    between atoms: _391  and  _393
REMARK  167  A    between atoms: _393  and  _394
REMARK  168  A    between atoms: _396  and  _398
REMARK  169  A    between atoms: _398  and  _399
REMARK  170  A    between atoms: _401  and  _403
REMARK  171  A    between atoms: _403  and  _404
REMARK  172  A    between atoms: _403  and  _406
REMARK  173  A    between atoms: _406  and  _407
REMARK  174  A    between atoms: _410  and  _412
REMARK  175  A    between atoms: _412  and  _413
REMARK  176  A    between atoms: _415  and  _417
REMARK  177  A    between atoms: _417  and  _418
REMARK  178  A    between atoms: _420  and  _422
REMARK  179  A    between atoms: _422  and  _423
REMARK  180  A    between atoms: _422  and  _425
REMARK  181  A    between atoms: _425  and  _426
REMARK  182  A    between atoms: _432  and  _434
REMARK  183  A    between atoms: _434  and  _435
REMARK  184  A    between atoms: _434  and  _437
REMARK  185  A    between atoms: _437  and  _438
REMARK  186  A    between atoms: _441  and  _443
REMARK  187  A    between atoms: _443  and  _444
REMARK  188  A    between atoms: _443  and  _446
REMARK  189  A    between atoms: _446  and  _447
REMARK  190  A    between atoms: _450  and  _452
REMARK  191  A    between atoms: _452  and  _453
REMARK  192  A    between atoms: _452  and  _455
REMARK  193  A    between atoms: _455  and  _456
REMARK  194  A    between atoms: _460  and  _461
REMARK  195  A    between atoms: _466  and  _468
REMARK  196  A    between atoms: _468  and  _469
REMARK  197  A    between atoms: _468  and  _471
REMARK  198  A    between atoms: _474  and  _476
REMARK  199  A    between atoms: _476  and  _477
REMARK  200  A    between atoms: _476  and  _479
REMARK  201  A    between atoms: _479  and  _480
REMARK  202  A    between atoms: _485  and  _487
REMARK  203  A    between atoms: _487  and  _488
REMARK  204  A    between atoms: _487  and  _490
REMARK  205  A    between atoms: _490  and  _491
REMARK  206  A    between atoms: _494  and  _496
REMARK  207  A    between atoms: _496  and  _497
REMARK  208  A    between atoms: _496  and  _499
REMARK  209  A    between atoms: _499  and  _500
REMARK  210  A    between atoms: _503  and  _505
REMARK  211  A    between atoms: _505  and  _506
REMARK  212  A    between atoms: _508  and  _510
REMARK  213  A    between atoms: _510  and  _511
REMARK  214  A    between atoms: _510  and  _513
REMARK  215  A    between atoms: _513  and  _514
REMARK  216  A    between atoms: _514  and  _515
REMARK  217  A    between atoms: _515  and  _516
REMARK  218  A    between atoms: _525  and  _527
REMARK  219  A    between atoms: _527  and  _528
REMARK  220  A    between atoms: _527  and  _530
REMARK  221  A    between atoms: _530  and  _531
REMARK                            x       y       z     vdW  Elec       q    Type
REMARK                         _______ _______ _______ _____ _____    ______ ____
ROOT
ATOM      1  CA  LEU A   1       7.033  35.505  16.517  0.00  0.00    +0.133 C 
ENDROOT
BRANCH   1   2
ATOM      2  N   LEU A   1       6.780  34.720  17.710  0.00  0.00    -0.239 NA
ATOM      3  H   LEU A   1       7.506  34.042  18.019  0.00  0.00    +0.142 HD
ENDBRANCH   1   2
BRANCH   1   4
ATOM      4  C   LEU A   1       6.703  34.644  15.311  0.00  0.00    +0.224 C 
ATOM      5  O   LEU A   1       7.152  33.504  15.225  0.00  0.00    -0.287 OA
ENDBRANCH   1   4
BRANCH   1   6
ATOM      6  CB  LEU A   1       8.505  35.924  16.467  0.00  0.00    +0.025 C 
BRANCH   6   7
ATOM      7  CG  LEU A   1       9.004  36.650  17.719  0.00  0.00    +0.002 C 
ATOM      8  CD2 LEU A   1       8.085  37.810  18.070  0.00  0.00    +0.000 C 
ATOM      9  CD1 LEU A   1      10.434  37.130  17.523  0.00  0.00    +0.000 C 
ENDBRANCH   6   7
ENDBRANCH   1   6
TORSDOF 4
REMARK  Name = ../refined-set-2016/2qi6/2qi6_pocket.pdb
REMARK  221 active torsions:
REMARK  status: ('A' for Active; 'I' for Inactive)
REMARK    1  A    between atoms: _1  and  _3
REMARK    2  A    between atoms: _3  and  _4
REMARK    3  A    between atoms: _3  and  _6
REMARK    4  A    between atoms: _6  and  _7
REMARK    5  A    between atoms: _7  and  _8
REMARK    6  A    between atoms: _8  and  _9
REMARK    7  A    between atoms: _18  and  _20
REMARK    8  A    between atoms: _20  and  _21
REMARK    9  A    between atoms: _20  and  _23
REMARK   10  A    between atoms: _23  and  _24
REMARK   11  A    between atoms: _27  and  _29
REMARK   12  A    between atoms: _29  and  _30
REMARK   13  A    between atoms: _29  and  _32
REMARK   14  A    between atoms: _32  and  _33
REMARK   15  A    between atoms: _36  and  _38
REMARK   16  A    between atoms: _38  and  _39
REMARK   17  A    between atoms: _38  and  _41
REMARK   18  A    between atoms: _41  and  _42
REMARK   19  A    between atoms: _45  and  _47
REMARK   20  A    between atoms: _47  and  _48
REMARK   21  A    between atoms: _47  and  _50
REMARK   22  A    between atoms: _50  and  _51
REMARK   23  A    between atoms: _54  and  _56
REMARK   24  A    between atoms: _56  and  _57
REMARK   25  A    between atoms: _59  and  _61
REMARK   26  A    between atoms: _61  and  _62
REMARK   27  A    between atoms: _65  and  _67
REMARK   28  A    between atoms: _67  and  _68
REMARK   29  A    between atoms: _67  and  _70
REMARK   30  A    between atoms: _70  and  _71
REMARK   31  A    between atoms: _74  and  _76
REMARK   32  A    between atoms: _76  and  _77
REMARK   33  A    between atoms: _76  and  _79
REMARK   34  A    between atoms: _79  and  _80
REMARK   35  A    between atoms: _83  and  _85
REMARK   36  A    between atoms: _85  and  _86
REMARK   37  A    between atoms: _85  and  _88
REMARK   38  A    between atoms: _88  and  _89
REMARK   39  A    between atoms: _92  and  _94
REMARK   40  A    between atoms: _94  and  _95
REMARK   41  A    between atoms: _94  and  _97
REMARK   42  A    between atoms: _100  and  _102
REMARK   43  A    between atoms: _102  and  _103
REMARK   44  A    between atoms: _102  and  _105
REMARK   45  A    between atoms: _105  and  _106
REMARK   46  A    between atoms: _106  and  _107
REMARK   47  A    between atoms: _107  and  _108
REMARK   48  A    between atoms: _108  and  _109
REMARK   49  A    between atoms: _113  and  _115
REMARK   50  A    between atoms: _115  and  _116
REMARK   51  A    between atoms: _115  and  _118
REMARK   52  A    between atoms: _118  and  _119
REMARK   53  A    between atoms: _119  and  _120
REMARK   54  A    between atoms: _122  and  _124
REMARK   55  A    between atoms: _124  and  _125
REMARK   56  A    between atoms: _124  and  _127
REMARK   57  A    between atoms: _127  and  _128
REMARK   58  A    between atoms: _131  and  _133
REMARK   59  A    between atoms: _133  and  _134
REMARK   60  A    between atoms: _136  and  _138
REMARK   61  A    between atoms: _138  and  _139
REMARK   62  A    between atoms: _141  and  _143
REMARK   63  A    between atoms: _143  and  _144
REMARK   64  A    between atoms: _143  and  _146
REMARK   65  A    between atoms: _146  and  _147
REMARK   66  A    between atoms: _150  and  _152
REMARK   67  A    between atoms: _152  and  _153
REMARK   68  A    between atoms: _155  and  _157
REMARK   69  A    between atoms: _157  and  _158
REMARK   70  A    between atoms: _160  and  _162
REMARK   71  A    between atoms: _162  and  _163
REMARK   72  A    between atoms: _162  and  _165
REMARK   73  A    between atoms: _165  and  _166
REMARK   74  A    between atoms: _169  and  _171
REMARK   75  A    between atoms: _171  and  _172
REMARK   76  A    between atoms: _171  and  _174
REMARK   77  A    between atoms: _177  and  _179
REMARK   78  A    between atoms: _179  and  _180
REMARK   79  A    between atoms: _179  and  _182
REMARK   80  A    between atoms: _182  and  _183
REMARK   81  A    between atoms: _186  and  _188
REMARK   82  A    between atoms: _188  and  _189
REMARK   83  A    between atoms: _188  and  _191
REMARK   84  A    between atoms: _191  and  _192
REMARK   85  A    between atoms: _196  and  _197
REMARK   86  A    between atoms: _202  and  _204
REMARK   87  A    between atoms: _204  and  _205
REMARK   88  A    between atoms: _204  and  _207
REMARK   89  A    between atoms: _210  and  _212
REMARK   90  A    between atoms: _212  and  _213
REMARK   91  A    between atoms: _212  and  _215
REMARK   92  A    between atoms: _215  and  _216
REMARK   93  A    between atoms: _221  and  _223
REMARK   94  A    between atoms: _223  and  _224
REMARK   95  A    between atoms: _223  and  _226
REMARK   96  A    between atoms: _226  and  _227
REMARK   97  A    between atoms: _230  and  _232
REMARK   98  A    between atoms: _232  and  _233
REMARK   99  A    between atoms: _232  and  _235
REMARK  100  A    between atoms: _235  and  _236
REMARK  101  A    between atoms: _239  and  _241
REMARK  102  A    between atoms: _241  and  _242
REMARK  103  A    between atoms: _244  and  _246
REMARK  104  A    between atoms: _246  and  _247
REMARK  105  A    between atoms: _246  and  _249
REMARK  106  A    between atoms: _249  and  _250
REMARK  107  A    between atoms: _250  and  _251
REMARK  108  A    between atoms: _251  and  _252
REMARK  109  A    between atoms: _261  and  _263
REMARK  110  A    between atoms: _263  and  _264
REMARK  111  A    between atoms: _263  and  _266
REMARK  112  A    between atoms: _266  and  _267
REMARK  113  A    between atoms: _267  and  _268
REMARK  114  A    between atoms: _268  and  _269
REMARK  115  A    between atoms: _278  and  _280
REMARK  116  A    between atoms: _280  and  _281
REMARK  117  A    between atoms: _280  and  _283
REMARK  118  A    between atoms: _283  and  _284
REMARK  119  A    between atoms: _287  and  _289
REMARK  120  A    between atoms: _289  and  _290
REMARK  121  A    between atoms: _289  and  _292
REMARK  122  A    between atoms: _292  and  _293
REMARK  123  A    between atoms: _296  and  _298
REMARK  124  A    between atoms: _298  and  _299
REMARK  125  A    between atoms: _298  and  _301
REMARK  126  A    between atoms: _301  and  _302
REMARK  127  A    between atoms: _305  and  _307
REMARK  128  A    between atoms: _307  and  _308
REMARK  129  A    between atoms: _307  and  _310
REMARK  130  A    between atoms: _310  and  _311
REMARK  131  A    between atoms: _314  and  _316
REMARK  132  A    between atoms: _316  and  _317
REMARK  133  A    between atoms: _319  and  _321
REMARK  134  A    between atoms: _321  and  _322
REMARK  135  A    between atoms: _325  and  _327
REMARK  136  A    between atoms: _327  and  _328
REMARK  137  A    between atoms: _327  and  _330
REMARK  138  A    between atoms: _330  and  _331
REMARK  139  A    between atoms: _334  and  _336
REMARK  140  A    between atoms: _336  and  _337
REMARK  141  A    between atoms: _336  and  _339
REMARK  142  A    between atoms: _339  and  _340
REMARK  143  A    between atoms: _343  and  _345
REMARK  144  A    between atoms: _345  and  _346
REMARK  145  A    between atoms: _345  and  _348
REMARK  146  A    between atoms: _348  and  _349
REMARK  147  A    between atoms: _352  and  _354
REMARK  148  A    between atoms: _354  and  _355
REMARK  149  A    between atoms: _354  and  _357
REMARK  150  A    between atoms: _360  and  _362
REMARK  151  A    between atoms: _362  and  _363
REMARK  152  A    between atoms: _362  and  _365
REMARK  153  A    between atoms: _365  and  _366
REMARK  154  A    between atoms: _366  and  _367
REMARK  155  A    between atoms: _367  and  _368
REMARK  156  A    between atoms: _368  and  _369
REMARK  157  A    between atoms: _373  and  _375
REMARK  158  A    between atoms: _375  and  _376
REMARK  159  A    between atoms: _375  and  _378
REMARK  160  A    between atoms: _378  and  _379
REMARK  161  A    between atoms: _379  and  _380
REMARK  162  A    between atoms: _382  and  _384
REMARK  163  A    between atoms: _384  and  _385
REMARK  164  A    between atoms: _384  and  _387
REMARK  165  A    between atoms: _387  and  _388
REMARK  166  A    between atoms: _391  and  _393
REMARK  167  A    between atoms: _393  and  _394
REMARK  168  A    between atoms: _396  and  _398
REMARK  169  A    between atoms: _398  and  _399
REMARK  170  A    between atoms: _401  and  _403
REMARK  171  A    between atoms: _403  and  _404
REMARK  172  A    between atoms: _403  and  _406
REMARK  173  A    between atoms: _406  and  _407
REMARK  174  A    between atoms: _410  and  _412
REMARK  175  A    between atoms: _412  and  _413
REMARK  176  A    between atoms: _415  and  _417
REMARK  177  A    between atoms: _417  and  _418
REMARK  178  A    between atoms: _420  and  _422
REMARK  179  A    between atoms: _422  and  _423
REMARK  180  A    between atoms: _422  and  _425
REMARK  181  A    between atoms: _425  and  _426
REMARK  182  A    between atoms: _432  and  _434
REMARK  183  A    between atoms: _434  and  _435
REMARK  184  A    between atoms: _434  and  _437
REMARK  185  A    between atoms: _437  and  _438
REMARK  186  A    between atoms: _441  and  _443
REMARK  187  A    between atoms: _443  and  _444
REMARK  188  A    between atoms: _443  and  _446
REMARK  189  A    between atoms: _446  and  _447
REMARK  190  A    between atoms: _450  and  _452
REMARK  191  A    between atoms: _452  and  _453
REMARK  192  A    between atoms: _452  and  _455
REMARK  193  A    between atoms: _455  and  _456
REMARK  194  A    between atoms: _460  and  _461
REMARK  195  A    between atoms: _466  and  _468
REMARK  196  A    between atoms: _468  and  _469
REMARK  197  A    between atoms: _468  and  _471
REMARK  198  A    between atoms: _474  and  _476
REMARK  199  A    between atoms: _476  and  _477
REMARK  200  A    between atoms: _476  and  _479
REMARK  201  A    between atoms: _479  and  _480
REMARK  202  A    between atoms: _485  and  _487
REMARK  203  A    between atoms: _487  and  _488
REMARK  204  A    between atoms: _487  and  _490
REMARK  205  A    between atoms: _490  and  _491
REMARK  206  A    between atoms: _494  and  _496
REMARK  207  A    between atoms: _496  and  _497
REMARK  208  A    between atoms: _496  and  _499
REMARK  209  A    between atoms: _499  and  _500
REMARK  210  A    between atoms: _503  and  _505
REMARK  211  A    between atoms: _505  and  _506
REMARK  212  A    between atoms: _508  and  _510
REMARK  213  A    between atoms: _510  and  _511
REMARK  214  A    between atoms: _510  and  _513
REMARK  215  A    between atoms: _513  and  _514
REMARK  216  A    between atoms: _514  and  _515
REMARK  217  A    between atoms: _515  and  _516
REMARK  218  A    between atoms: _525  and  _527
REMARK  219  A    between atoms: _527  and  _528
REMARK  220  A    between atoms: _527  and  _530
REMARK  221  A    between atoms: _530  and  _531
REMARK                            x       y       z     vdW  Elec       q    Type
REMARK                         _______ _______ _______ _____ _____    ______ ____
ROOT
ATOM      1  C   ILE A   5      11.601  27.841  18.016  0.00  0.00    +0.241 C 
ATOM      2  N   ILE A   6      11.844  26.953  18.978  0.00  0.00    -0.297 N 
ATOM      3  H   ILE A   6      12.329  26.064  18.740  0.00  0.00    +0.150 HD
ATOM      4  O   ILE A   5      10.905  28.851  18.188  0.00  0.00    -0.273 OA
ENDROOT
BRANCH   2   5
ATOM      5  CA  ILE A   6      11.442  27.202  20.363  0.00  0.00    +0.149 C 
BRANCH   5   6
ATOM      6  C   ILE A   6      12.616  27.832  21.082  0.00  0.00    +0.241 C 
ATOM      7  N   GLY A   7      12.421  29.091  21.469  0.00  0.00    -0.295 N 
ATOM      8  H   GLY A   7      11.481  29.513  21.328  0.00  0.00    +0.150 HD
ATOM      9  O   ILE A   6      13.671  27.200  21.261  0.00  0.00    -0.273 OA
BRANCH   7  10
ATOM     10  CA  GLY A   7      13.459  29.902  22.079  0.00  0.00    +0.176 C 
BRANCH  10  11
ATOM     11  C   GLY A   7      13.390  29.887  23.591  0.00  0.00    +0.243 C 
ATOM     12  N   ARG A   8      14.348  30.575  24.203  0.00  0.00    -0.297 N 
ATOM     13  H   ARG A   8      15.008  31.135  23.626  0.00  0.00    +0.150 HD
ATOM     14  O   GLY A   7      12.493  29.275  24.188  0.00  0.00    -0.273 OA
BRANCH  12  15
ATOM     15  CA  ARG A   8      14.511  30.576  25.655  0.00  0.00    +0.149 C 
BRANCH  15  16
ATOM     16  C   ARG A   8      13.279  31.047  26.427  0.00  0.00    +0.241 C 
ATOM     17  O   ARG A   8      13.016  30.577  27.552  0.00  0.00    -0.273 OA
ATOM     18  N   ASN A   9      12.505  31.960  25.847  0.00  0.00    -0.298 N 
ATOM     19  H   ASN A   9      12.758  32.342  24.913  0.00  0.00    +0.150 HD
BRANCH  18  20
ATOM     20  CA  ASN A   9      11.301  32.423  26.525  0.00  0.00    +0.146 C 
BRANCH  20  21
ATOM     21  C   ASN A   9      10.363  31.279  26.925  0.00  0.00    +0.227 C 
ATOM     22  O   ASN A   9       9.666  31.383  27.928  0.00  0.00    -0.286 OA
ENDBRANCH  20  21
BRANCH  20  23
ATOM     23  CB  ASN A   9      10.552  33.484  25.712  0.00  0.00    +0.112 C 
BRANCH  23  24
ATOM     24  CG  ASN A   9       9.885  32.926  24.469  0.00  0.00    +0.222 C 
ATOM     25  ND2 ASN A   9       8.586  33.201  24.327  0.00  0.00    -0.329 N 
ATOM     26 HD21 ASN A   9       8.084  33.736  25.064  0.00  0.00    +0.145 HD
ATOM     27 HD22 ASN A   9       8.076  32.880  23.479  0.00  0.00    +0.145 HD
ATOM     28  OD1 ASN A   9      10.532  32.294  23.626  0.00  0.00    -0.275 OA
ENDBRANCH  23  24
ENDBRANCH  20  23
ENDBRANCH  18  20
ENDBRANCH  15  16
BRANCH  15  29
ATOM     29  CB  ARG A   8      15.736  31.399  26.044  0.00  0.00    +0.033 C 
BRANCH  29  30
ATOM     30  CG  ARG A   8      17.052  30.771  25.606  0.00  0.00    +0.045 C 
BRANCH  30  31
ATOM     31  CD  ARG A   8      18.277  31.511  26.157  0.00  0.00    +0.174 C 
BRANCH  31  32
ATOM     32  NE  ARG A   8      18.368  32.896  25.694  0.00  0.00    -0.265 N 
ATOM     33  CZ  ARG A   8      18.020  33.974  26.400  0.00  0.00    +0.342 C 
ATOM     34  NH2 ARG A   8      17.522  33.887  27.627  0.00  0.00    -0.292 N 
ATOM     35 HH21 ARG A   8      17.263  34.750  28.145  0.00  0.00    +0.255 HD
ATOM     36 HH22 ARG A   8      17.391  32.955  28.070  0.00  0.00    +0.255 HD
ATOM     37  NH1 ARG A   8      18.157  35.173  25.854  0.00  0.00    -0.292 N 
ATOM     38 HH11 ARG A   8      17.890  36.023  26.391  0.00  0.00    +0.255 HD
ATOM     39 HH12 ARG A   8      18.531  35.265  24.888  0.00  0.00    +0.255 HD
ATOM     40  HE  ARG A   8      18.735  33.054  24.734  0.00  0.00    +0.259 HD
ENDBRANCH  31  32
ENDBRANCH  30  31
ENDBRANCH  29  30
ENDBRANCH  15  29
ENDBRANCH  12  15
ENDBRANCH  10  11
ENDBRANCH   7  10
ENDBRANCH   5   6
BRANCH   5  41
ATOM     41  CB  ILE A   6      11.004  25.927  21.094  0.00  0.00    +0.027 C 
ATOM     42  CG2 ILE A   6      10.556  26.260  22.519  0.00  0.00    +0.002 C 
BRANCH  41  43
ATOM     43  CG1 ILE A   6       9.888  25.236  20.304  0.00  0.00    +0.002 C 
ATOM     44  CD1 ILE A   6       8.668  26.082  20.074  0.00  0.00    +0.000 C 
ENDBRANCH  41  43
ENDBRANCH   5  41
ENDBRANCH   2   5
BRANCH   1  45
ATOM     45  CA  ILE A   5      12.211  27.555  16.644  0.00  0.00    +0.149 C 
BRANCH  45  47
ATOM     46  C   ASN A   4      11.058  26.298  14.900  0.00  0.00    +0.241 C 
ATOM     47  N   ILE A   5      11.157  27.383  15.662  0.00  0.00    -0.297 N 
ATOM     48  H   ILE A   5      10.451  28.138  15.550  0.00  0.00    +0.150 HD
ATOM     49  O   ASN A   4      11.766  25.302  15.046  0.00  0.00    -0.273 OA
BRANCH  46  50
ATOM     50  CA  ASN A   4      10.006  26.343  13.793  0.00  0.00    +0.158 C 
BRANCH  50  52
ATOM     51  C   VAL A   3      11.483  26.659  11.892  0.00  0.00    +0.241 C 
ATOM     52  N   ASN A   4      10.640  25.882  12.563  0.00  0.00    -0.297 N 
ATOM     53  H   ASN A   4      10.428  24.929  12.205  0.00  0.00    +0.150 HD
ATOM     54  O   VAL A   3      11.695  27.837  12.199  0.00  0.00    -0.273 OA
BRANCH  51  55
ATOM     55  CA  VAL A   3      12.179  26.022  10.694  0.00  0.00    +0.149 C 
BRANCH  55  57
ATOM     56  C   PRO A   2      12.348  26.760   8.365  0.00  0.00    +0.241 C 
ATOM     57  N   VAL A   3      12.432  27.023   9.664  0.00  0.00    -0.297 N 
ATOM     58  H   VAL A   3      12.690  27.986   9.960  0.00  0.00    +0.150 HD
ATOM     59  O   PRO A   2      12.075  25.650   7.909  0.00  0.00    -0.273 OA
BRANCH  56  66
ATOM     60  C   THR A   1      11.421  29.807   8.355  0.00  0.00    +0.244 C 
ATOM     61  O   THR A   1      10.338  29.257   8.126  0.00  0.00    -0.273 OA
ATOM     62  N   PRO A   2      12.590  29.256   7.999  0.00  0.00    -0.272 N 
ATOM     63  CD  PRO A   2      13.922  29.877   8.097  0.00  0.00    +0.094 C 
ATOM     64  CG  PRO A   2      14.857  28.786   7.688  0.00  0.00    +0.024 C 
ATOM     65  CB  PRO A   2      14.079  27.812   6.894  0.00  0.00    +0.031 C 
ATOM     66  CA  PRO A   2      12.641  27.916   7.407  0.00  0.00    +0.152 C 
BRANCH  60  67
ATOM     67  CA  THR A   1      11.479  31.173   9.050  0.00  0.00    +0.172 C 
BRANCH  67  68
ATOM     68  N   THR A   1      10.362  31.989   8.604  0.00  0.00    -0.236 NA
ATOM     69  H   THR A   1       9.508  32.043   9.196  0.00  0.00    +0.142 HD
ENDBRANCH  67  68
BRANCH  67  70
ATOM     70  CB  THR A   1      11.515  31.017  10.593  0.00  0.00    +0.135 C 
ATOM     71  CG2 THR A   1      10.211  30.445  11.143  0.00  0.00    +0.034 C 
BRANCH  70  72
ATOM     72  OG1 THR A   1      12.589  30.146  10.965  0.00  0.00    -0.383 OA
ATOM     73  HG1 THR A   1      12.452  29.259  10.548  0.00  0.00    +0.210 HD
ENDBRANCH  70  72
ENDBRANCH  67  70
ENDBRANCH  60  67
ENDBRANCH  56  66
ENDBRANCH  55  57
BRANCH  55  74
ATOM     74  CB  VAL A   3      13.490  25.354  11.160  0.00  0.00    +0.027 C 
ATOM     75  CG2 VAL A   3      14.486  26.393  11.670  0.00  0.00    +0.002 C 
ATOM     76  CG1 VAL A   3      14.104  24.535  10.036  0.00  0.00    +0.002 C 
ENDBRANCH  55  74
ENDBRANCH  51  55
ENDBRANCH  50  52
BRANCH  50  77
ATOM     77  CB  ASN A   4       8.808  25.483  14.184  0.00  0.00    +0.114 C 
BRANCH  77  78
ATOM     78  CG  ASN A   4       7.629  25.637  13.243  0.00  0.00    +0.222 C 
ATOM     79  OD1 ASN A   4       7.164  26.747  12.980  0.00  0.00    -0.275 OA
ATOM     80  ND2 ASN A   4       7.114  24.515  12.762  0.00  0.00    -0.329 N 
ATOM     81 HD21 ASN A   4       7.539  23.599  13.011  0.00  0.00    +0.145 HD
ATOM     82 HD22 ASN A   4       6.284  24.550  12.136  0.00  0.00    +0.145 HD
ENDBRANCH  77  78
ENDBRANCH  50  77
ENDBRANCH  46  50
ENDBRANCH  45  47
BRANCH  45  83
ATOM     83  CB  ILE A   5      13.141  28.721  16.245  0.00  0.00    +0.027 C 
ATOM     84  CG2 ILE A   5      14.138  29.035  17.373  0.00  0.00    +0.002 C 
BRANCH  83  85
ATOM     85  CG1 ILE A   5      13.900  28.394  14.957  0.00  0.00    +0.002 C 
ATOM     86  CD1 ILE A   5      14.496  29.617  14.282  0.00  0.00    +0.000 C 
ENDBRANCH  83  85
ENDBRANCH  45  83
ENDBRANCH   1  45
TORSDOF 32
REMARK  Name = ../refined-set-2016/2qi6/2qi6_pocket.pdb
REMARK  221 active torsions:
REMARK  status: ('A' for Active; 'I' for Inactive)
REMARK    1  A    between atoms: _1  and  _3
REMARK    2  A    between atoms: _3  and  _4
REMARK    3  A    between atoms: _3  and  _6
REMARK    4  A    between atoms: _6  and  _7
REMARK    5  A    between atoms: _7  and  _8
REMARK    6  A    between atoms: _8  and  _9
REMARK    7  A    between atoms: _18  and  _20
REMARK    8  A    between atoms: _20  and  _21
REMARK    9  A    between atoms: _20  and  _23
REMARK   10  A    between atoms: _23  and  _24
REMARK   11  A    between atoms: _27  and  _29
REMARK   12  A    between atoms: _29  and  _30
REMARK   13  A    between atoms: _29  and  _32
REMARK   14  A    between atoms: _32  and  _33
REMARK   15  A    between atoms: _36  and  _38
REMARK   16  A    between atoms: _38  and  _39
REMARK   17  A    between atoms: _38  and  _41
REMARK   18  A    between atoms: _41  and  _42
REMARK   19  A    between atoms: _45  and  _47
REMARK   20  A    between atoms: _47  and  _48
REMARK   21  A    between atoms: _47  and  _50
REMARK   22  A    between atoms: _50  and  _51
REMARK   23  A    between atoms: _54  and  _56
REMARK   24  A    between atoms: _56  and  _57
REMARK   25  A    between atoms: _59  and  _61
REMARK   26  A    between atoms: _61  and  _62
REMARK   27  A    between atoms: _65  and  _67
REMARK   28  A    between atoms: _67  and  _68
REMARK   29  A    between atoms: _67  and  _70
REMARK   30  A    between atoms: _70  and  _71
REMARK   31  A    between atoms: _74  and  _76
REMARK   32  A    between atoms: _76  and  _77
REMARK   33  A    between atoms: _76  and  _79
REMARK   34  A    between atoms: _79  and  _80
REMARK   35  A    between atoms: _83  and  _85
REMARK   36  A    between atoms: _85  and  _86
REMARK   37  A    between atoms: _85  and  _88
REMARK   38  A    between atoms: _88  and  _89
REMARK   39  A    between atoms: _92  and  _94
REMARK   40  A    between atoms: _94  and  _95
REMARK   41  A    between atoms: _94  and  _97
REMARK   42  A    between atoms: _100  and  _102
REMARK   43  A    between atoms: _102  and  _103
REMARK   44  A    between atoms: _102  and  _105
REMARK   45  A    between atoms: _105  and  _106
REMARK   46  A    between atoms: _106  and  _107
REMARK   47  A    between atoms: _107  and  _108
REMARK   48  A    between atoms: _108  and  _109
REMARK   49  A    between atoms: _113  and  _115
REMARK   50  A    between atoms: _115  and  _116
REMARK   51  A    between atoms: _115  and  _118
REMARK   52  A    between atoms: _118  and  _119
REMARK   53  A    between atoms: _119  and  _120
REMARK   54  A    between atoms: _122  and  _124
REMARK   55  A    between atoms: _124  and  _125
REMARK   56  A    between atoms: _124  and  _127
REMARK   57  A    between atoms: _127  and  _128
REMARK   58  A    between atoms: _131  and  _133
REMARK   59  A    between atoms: _133  and  _134
REMARK   60  A    between atoms: _136  and  _138
REMARK   61  A    between atoms: _138  and  _139
REMARK   62  A    between atoms: _141  and  _143
REMARK   63  A    between atoms: _143  and  _144
REMARK   64  A    between atoms: _143  and  _146
REMARK   65  A    between atoms: _146  and  _147
REMARK   66  A    between atoms: _150  and  _152
REMARK   67  A    between atoms: _152  and  _153
REMARK   68  A    between atoms: _155  and  _157
REMARK   69  A    between atoms: _157  and  _158
REMARK   70  A    between atoms: _160  and  _162
REMARK   71  A    between atoms: _162  and  _163
REMARK   72  A    between atoms: _162  and  _165
REMARK   73  A    between atoms: _165  and  _166
REMARK   74  A    between atoms: _169  and  _171
REMARK   75  A    between atoms: _171  and  _172
REMARK   76  A    between atoms: _171  and  _174
REMARK   77  A    between atoms: _177  and  _179
REMARK   78  A    between atoms: _179  and  _180
REMARK   79  A    between atoms: _179  and  _182
REMARK   80  A    between atoms: _182  and  _183
REMARK   81  A    between atoms: _186  and  _188
REMARK   82  A    between atoms: _188  and  _189
REMARK   83  A    between atoms: _188  and  _191
REMARK   84  A    between atoms: _191  and  _192
REMARK   85  A    between atoms: _196  and  _197
REMARK   86  A    between atoms: _202  and  _204
REMARK   87  A    between atoms: _204  and  _205
REMARK   88  A    between atoms: _204  and  _207
REMARK   89  A    between atoms: _210  and  _212
REMARK   90  A    between atoms: _212  and  _213
REMARK   91  A    between atoms: _212  and  _215
REMARK   92  A    between atoms: _215  and  _216
REMARK   93  A    between atoms: _221  and  _223
REMARK   94  A    between atoms: _223  and  _224
REMARK   95  A    between atoms: _223  and  _226
REMARK   96  A    between atoms: _226  and  _227
REMARK   97  A    between atoms: _230  and  _232
REMARK   98  A    between atoms: _232  and  _233
REMARK   99  A    between atoms: _232  and  _235
REMARK  100  A    between atoms: _235  and  _236
REMARK  101  A    between atoms: _239  and  _241
REMARK  102  A    between atoms: _241  and  _242
REMARK  103  A    between atoms: _244  and  _246
REMARK  104  A    between atoms: _246  and  _247
REMARK  105  A    between atoms: _246  and  _249
REMARK  106  A    between atoms: _249  and  _250
REMARK  107  A    between atoms: _250  and  _251
REMARK  108  A    between atoms: _251  and  _252
REMARK  109  A    between atoms: _261  and  _263
REMARK  110  A    between atoms: _263  and  _264
REMARK  111  A    between atoms: _263  and  _266
REMARK  112  A    between atoms: _266  and  _267
REMARK  113  A    between atoms: _267  and  _268
REMARK  114  A    between atoms: _268  and  _269
REMARK  115  A    between atoms: _278  and  _280
REMARK  116  A    between atoms: _280  and  _281
REMARK  117  A    between atoms: _280  and  _283
REMARK  118  A    between atoms: _283  and  _284
REMARK  119  A    between atoms: _287  and  _289
REMARK  120  A    between atoms: _289  and  _290
REMARK  121  A    between atoms: _289  and  _292
REMARK  122  A    between atoms: _292  and  _293
REMARK  123  A    between atoms: _296  and  _298
REMARK  124  A    between atoms: _298  and  _299
REMARK  125  A    between atoms: _298  and  _301
REMARK  126  A    between atoms: _301  and  _302
REMARK  127  A    between atoms: _305  and  _307
REMARK  128  A    between atoms: _307  and  _308
REMARK  129  A    between atoms: _307  and  _310
REMARK  130  A    between atoms: _310  and  _311
REMARK  131  A    between atoms: _314  and  _316
REMARK  132  A    between atoms: _316  and  _317
REMARK  133  A    between atoms: _319  and  _321
REMARK  134  A    between atoms: _321  and  _322
REMARK  135  A    between atoms: _325  and  _327
REMARK  136  A    between atoms: _327  and  _328
REMARK  137  A    between atoms: _327  and  _330
REMARK  138  A    between atoms: _330  and  _331
REMARK  139  A    between atoms: _334  and  _336
REMARK  140  A    between atoms: _336  and  _337
REMARK  141  A    between atoms: _336  and  _339
REMARK  142  A    between atoms: _339  and  _340
REMARK  143  A    between atoms: _343  and  _345
REMARK  144  A    between atoms: _345  and  _346
REMARK  145  A    between atoms: _345  and  _348
REMARK  146  A    between atoms: _348  and  _349
REMARK  147  A    between atoms: _352  and  _354
REMARK  148  A    between atoms: _354  and  _355
REMARK  149  A    between atoms: _354  and  _357
REMARK  150  A    between atoms: _360  and  _362
REMARK  151  A    between atoms: _362  and  _363
REMARK  152  A    between atoms: _362  and  _365
REMARK  153  A    between atoms: _365  and  _366
REMARK  154  A    between atoms: _366  and  _367
REMARK  155  A    between atoms: _367  and  _368
REMARK  156  A    between atoms: _368  and  _369
REMARK  157  A    between atoms: _373  and  _375
REMARK  158  A    between atoms: _375  and  _376
REMARK  159  A    between atoms: _375  and  _378
REMARK  160  A    between atoms: _378  and  _379
REMARK  161  A    between atoms: _379  and  _380
REMARK  162  A    between atoms: _382  and  _384
REMARK  163  A    between atoms: _384  and  _385
REMARK  164  A    between atoms: _384  and  _387
REMARK  165  A    between atoms: _387  and  _388
REMARK  166  A    between atoms: _391  and  _393
REMARK  167  A    between atoms: _393  and  _394
REMARK  168  A    between atoms: _396  and  _398
REMARK  169  A    between atoms: _398  and  _399
REMARK  170  A    between atoms: _401  and  _403
REMARK  171  A    between atoms: _403  and  _404
REMARK  172  A    between atoms: _403  and  _406
REMARK  173  A    between atoms: _406  and  _407
REMARK  174  A    between atoms: _410  and  _412
REMARK  175  A    between atoms: _412  and  _413
REMARK  176  A    between atoms: _415  and  _417
REMARK  177  A    between atoms: _417  and  _418
REMARK  178  A    between atoms: _420  and  _422
REMARK  179  A    between atoms: _422  and  _423
REMARK  180  A    between atoms: _422  and  _425
REMARK  181  A    between atoms: _425  and  _426
REMARK  182  A    between atoms: _432  and  _434
REMARK  183  A    between atoms: _434  and  _435
REMARK  184  A    between atoms: _434  and  _437
REMARK  185  A    between atoms: _437  and  _438
REMARK  186  A    between atoms: _441  and  _443
REMARK  187  A    between atoms: _443  and  _444
REMARK  188  A    between atoms: _443  and  _446
REMARK  189  A    between atoms: _446  and  _447
REMARK  190  A    between atoms: _450  and  _452
REMARK  191  A    between atoms: _452  and  _453
REMARK  192  A    between atoms: _452  and  _455
REMARK  193  A    between atoms: _455  and  _456
REMARK  194  A    between atoms: _460  and  _461
REMARK  195  A    between atoms: _466  and  _468
REMARK  196  A    between atoms: _468  and  _469
REMARK  197  A    between atoms: _468  and  _471
REMARK  198  A    between atoms: _474  and  _476
REMARK  199  A    between atoms: _476  and  _477
REMARK  200  A    between atoms: _476  and  _479
REMARK  201  A    between atoms: _479  and  _480
REMARK  202  A    between atoms: _485  and  _487
REMARK  203  A    between atoms: _487  and  _488
REMARK  204  A    between atoms: _487  and  _490
REMARK  205  A    between atoms: _490  and  _491
REMARK  206  A    between atoms: _494  and  _496
REMARK  207  A    between atoms: _496  and  _497
REMARK  208  A    between atoms: _496  and  _499
REMARK  209  A    between atoms: _499  and  _500
REMARK  210  A    between atoms: _503  and  _505
REMARK  211  A    between atoms: _505  and  _506
REMARK  212  A    between atoms: _508  and  _510
REMARK  213  A    between atoms: _510  and  _511
REMARK  214  A    between atoms: _510  and  _513
REMARK  215  A    between atoms: _513  and  _514
REMARK  216  A    between atoms: _514  and  _515
REMARK  217  A    between atoms: _515  and  _516
REMARK  218  A    between atoms: _525  and  _527
REMARK  219  A    between atoms: _527  and  _528
REMARK  220  A    between atoms: _527  and  _530
REMARK  221  A    between atoms: _530  and  _531
REMARK                            x       y       z     vdW  Elec       q    Type
REMARK                         _______ _______ _______ _____ _____    ______ ____
ROOT
ATOM      1  O   HOH     1      20.200  21.839  15.462  0.00  0.00    +0.000 OA
ENDROOT
TORSDOF 0
REMARK  Name = ../refined-set-2016/2qi6/2qi6_pocket.pdb
REMARK  221 active torsions:
REMARK  status: ('A' for Active; 'I' for Inactive)
REMARK    1  A    between atoms: _1  and  _3
REMARK    2  A    between atoms: _3  and  _4
REMARK    3  A    between atoms: _3  and  _6
REMARK    4  A    between atoms: _6  and  _7
REMARK    5  A    between atoms: _7  and  _8
REMARK    6  A    between atoms: _8  and  _9
REMARK    7  A    between atoms: _18  and  _20
REMARK    8  A    between atoms: _20  and  _21
REMARK    9  A    between atoms: _20  and  _23
REMARK   10  A    between atoms: _23  and  _24
REMARK   11  A    between atoms: _27  and  _29
REMARK   12  A    between atoms: _29  and  _30
REMARK   13  A    between atoms: _29  and  _32
REMARK   14  A    between atoms: _32  and  _33
REMARK   15  A    between atoms: _36  and  _38
REMARK   16  A    between atoms: _38  and  _39
REMARK   17  A    between atoms: _38  and  _41
REMARK   18  A    between atoms: _41  and  _42
REMARK   19  A    between atoms: _45  and  _47
REMARK   20  A    between atoms: _47  and  _48
REMARK   21  A    between atoms: _47  and  _50
REMARK   22  A    between atoms: _50  and  _51
REMARK   23  A    between atoms: _54  and  _56
REMARK   24  A    between atoms: _56  and  _57
REMARK   25  A    between atoms: _59  and  _61
REMARK   26  A    between atoms: _61  and  _62
REMARK   27  A    between atoms: _65  and  _67
REMARK   28  A    between atoms: _67  and  _68
REMARK   29  A    between atoms: _67  and  _70
REMARK   30  A    between atoms: _70  and  _71
REMARK   31  A    between atoms: _74  and  _76
REMARK   32  A    between atoms: _76  and  _77
REMARK   33  A    between atoms: _76  and  _79
REMARK   34  A    between atoms: _79  and  _80
REMARK   35  A    between atoms: _83  and  _85
REMARK   36  A    between atoms: _85  and  _86
REMARK   37  A    between atoms: _85  and  _88
REMARK   38  A    between atoms: _88  and  _89
REMARK   39  A    between atoms: _92  and  _94
REMARK   40  A    between atoms: _94  and  _95
REMARK   41  A    between atoms: _94  and  _97
REMARK   42  A    between atoms: _100  and  _102
REMARK   43  A    between atoms: _102  and  _103
REMARK   44  A    between atoms: _102  and  _105
REMARK   45  A    between atoms: _105  and  _106
REMARK   46  A    between atoms: _106  and  _107
REMARK   47  A    between atoms: _107  and  _108
REMARK   48  A    between atoms: _108  and  _109
REMARK   49  A    between atoms: _113  and  _115
REMARK   50  A    between atoms: _115  and  _116
REMARK   51  A    between atoms: _115  and  _118
REMARK   52  A    between atoms: _118  and  _119
REMARK   53  A    between atoms: _119  and  _120
REMARK   54  A    between atoms: _122  and  _124
REMARK   55  A    between atoms: _124  and  _125
REMARK   56  A    between atoms: _124  and  _127
REMARK   57  A    between atoms: _127  and  _128
REMARK   58  A    between atoms: _131  and  _133
REMARK   59  A    between atoms: _133  and  _134
REMARK   60  A    between atoms: _136  and  _138
REMARK   61  A    between atoms: _138  and  _139
REMARK   62  A    between atoms: _141  and  _143
REMARK   63  A    between atoms: _143  and  _144
REMARK   64  A    between atoms: _143  and  _146
REMARK   65  A    between atoms: _146  and  _147
REMARK   66  A    between atoms: _150  and  _152
REMARK   67  A    between atoms: _152  and  _153
REMARK   68  A    between atoms: _155  and  _157
REMARK   69  A    between atoms: _157  and  _158
REMARK   70  A    between atoms: _160  and  _162
REMARK   71  A    between atoms: _162  and  _163
REMARK   72  A    between atoms: _162  and  _165
REMARK   73  A    between atoms: _165  and  _166
REMARK   74  A    between atoms: _169  and  _171
REMARK   75  A    between atoms: _171  and  _172
REMARK   76  A    between atoms: _171  and  _174
REMARK   77  A    between atoms: _177  and  _179
REMARK   78  A    between atoms: _179  and  _180
REMARK   79  A    between atoms: _179  and  _182
REMARK   80  A    between atoms: _182  and  _183
REMARK   81  A    between atoms: _186  and  _188
REMARK   82  A    between atoms: _188  and  _189
REMARK   83  A    between atoms: _188  and  _191
REMARK   84  A    between atoms: _191  and  _192
REMARK   85  A    between atoms: _196  and  _197
REMARK   86  A    between atoms: _202  and  _204
REMARK   87  A    between atoms: _204  and  _205
REMARK   88  A    between atoms: _204  and  _207
REMARK   89  A    between atoms: _210  and  _212
REMARK   90  A    between atoms: _212  and  _213
REMARK   91  A    between atoms: _212  and  _215
REMARK   92  A    between atoms: _215  and  _216
REMARK   93  A    between atoms: _221  and  _223
REMARK   94  A    between atoms: _223  and  _224
REMARK   95  A    between atoms: _223  and  _226
REMARK   96  A    between atoms: _226  and  _227
REMARK   97  A    between atoms: _230  and  _232
REMARK   98  A    between atoms: _232  and  _233
REMARK   99  A    between atoms: _232  and  _235
REMARK  100  A    between atoms: _235  and  _236
REMARK  101  A    between atoms: _239  and  _241
REMARK  102  A    between atoms: _241  and  _242
REMARK  103  A    between atoms: _244  and  _246
REMARK  104  A    between atoms: _246  and  _247
REMARK  105  A    between atoms: _246  and  _249
REMARK  106  A    between atoms: _249  and  _250
REMARK  107  A    between atoms: _250  and  _251
REMARK  108  A    between atoms: _251  and  _252
REMARK  109  A    between atoms: _261  and  _263
REMARK  110  A    between atoms: _263  and  _264
REMARK  111  A    between atoms: _263  and  _266
REMARK  112  A    between atoms: _266  and  _267
REMARK  113  A    between atoms: _267  and  _268
REMARK  114  A    between atoms: _268  and  _269
REMARK  115  A    between atoms: _278  and  _280
REMARK  116  A    between atoms: _280  and  _281
REMARK  117  A    between atoms: _280  and  _283
REMARK  118  A    between atoms: _283  and  _284
REMARK  119  A    between atoms: _287  and  _289
REMARK  120  A    between atoms: _289  and  _290
REMARK  121  A    between atoms: _289  and  _292
REMARK  122  A    between atoms: _292  and  _293
REMARK  123  A    between atoms: _296  and  _298
REMARK  124  A    between atoms: _298  and  _299
REMARK  125  A    between atoms: _298  and  _301
REMARK  126  A    between atoms: _301  and  _302
REMARK  127  A    between atoms: _305  and  _307
REMARK  128  A    between atoms: _307  and  _308
REMARK  129  A    between atoms: _307  and  _310
REMARK  130  A    between atoms: _310  and  _311
REMARK  131  A    between atoms: _314  and  _316
REMARK  132  A    between atoms: _316  and  _317
REMARK  133  A    between atoms: _319  and  _321
REMARK  134  A    between atoms: _321  and  _322
REMARK  135  A    between atoms: _325  and  _327
REMARK  136  A    between atoms: _327  and  _328
REMARK  137  A    between atoms: _327  and  _330
REMARK  138  A    between atoms: _330  and  _331
REMARK  139  A    between atoms: _334  and  _336
REMARK  140  A    between atoms: _336  and  _337
REMARK  141  A    between atoms: _336  and  _339
REMARK  142  A    between atoms: _339  and  _340
REMARK  143  A    between atoms: _343  and  _345
REMARK  144  A    between atoms: _345  and  _346
REMARK  145  A    between atoms: _345  and  _348
REMARK  146  A    between atoms: _348  and  _349
REMARK  147  A    between atoms: _352  and  _354
REMARK  148  A    between atoms: _354  and  _355
REMARK  149  A    between atoms: _354  and  _357
REMARK  150  A    between atoms: _360  and  _362
REMARK  151  A    between atoms: _362  and  _363
REMARK  152  A    between atoms: _362  and  _365
REMARK  153  A    between atoms: _365  and  _366
REMARK  154  A    between atoms: _366  and  _367
REMARK  155  A    between atoms: _367  and  _368
REMARK  156  A    between atoms: _368  and  _369
REMARK  157  A    between atoms: _373  and  _375
REMARK  158  A    between atoms: _375  and  _376
REMARK  159  A    between atoms: _375  and  _378
REMARK  160  A    between atoms: _378  and  _379
REMARK  161  A    between atoms: _379  and  _380
REMARK  162  A    between atoms: _382  and  _384
REMARK  163  A    between atoms: _384  and  _385
REMARK  164  A    between atoms: _384  and  _387
REMARK  165  A    between atoms: _387  and  _388
REMARK  166  A    between atoms: _391  and  _393
REMARK  167  A    between atoms: _393  and  _394
REMARK  168  A    between atoms: _396  and  _398
REMARK  169  A    between atoms: _398  and  _399
REMARK  170  A    between atoms: _401  and  _403
REMARK  171  A    between atoms: _403  and  _404
REMARK  172  A    between atoms: _403  and  _406
REMARK  173  A    between atoms: _406  and  _407
REMARK  174  A    between atoms: _410  and  _412
REMARK  175  A    between atoms: _412  and  _413
REMARK  176  A    between atoms: _415  and  _417
REMARK  177  A    between atoms: _417  and  _418
REMARK  178  A    between atoms: _420  and  _422
REMARK  179  A    between atoms: _422  and  _423
REMARK  180  A    between atoms: _422  and  _425
REMARK  181  A    between atoms: _425  and  _426
REMARK  182  A    between atoms: _432  and  _434
REMARK  183  A    between atoms: _434  and  _435
REMARK  184  A    between atoms: _434  and  _437
REMARK  185  A    between atoms: _437  and  _438
REMARK  186  A    between atoms: _441  and  _443
REMARK  187  A    between atoms: _443  and  _444
REMARK  188  A    between atoms: _443  and  _446
REMARK  189  A    between atoms: _446  and  _447
REMARK  190  A    between atoms: _450  and  _452
REMARK  191  A    between atoms: _452  and  _453
REMARK  192  A    between atoms: _452  and  _455
REMARK  193  A    between atoms: _455  and  _456
REMARK  194  A    between atoms: _460  and  _461
REMARK  195  A    between atoms: _466  and  _468
REMARK  196  A    between atoms: _468  and  _469
REMARK  197  A    between atoms: _468  and  _471
REMARK  198  A    between atoms: _474  and  _476
REMARK  199  A    between atoms: _476  and  _477
REMARK  200  A    between atoms: _476  and  _479
REMARK  201  A    between atoms: _479  and  _480
REMARK  202  A    between atoms: _485  and  _487
REMARK  203  A    between atoms: _487  and  _488
REMARK  204  A    between atoms: _487  and  _490
REMARK  205  A    between atoms: _490  and  _491
REMARK  206  A    between atoms: _494  and  _496
REMARK  207  A    between atoms: _496  and  _497
REMARK  208  A    between atoms: _496  and  _499
REMARK  209  A    between atoms: _499  and  _500
REMARK  210  A    between atoms: _503  and  _505
REMARK  211  A    between atoms: _505  and  _506
REMARK  212  A    between atoms: _508  and  _510
REMARK  213  A    between atoms: _510  and  _511
REMARK  214  A    between atoms: _510  and  _513
REMARK  215  A    between atoms: _513  and  _514
REMARK  216  A    between atoms: _514  and  _515
REMARK  217  A    between atoms: _515  and  _516
REMARK  218  A    between atoms: _525  and  _527
REMARK  219  A    between atoms: _527  and  _528
REMARK  220  A    between atoms: _527  and  _530
REMARK  221  A    between atoms: _530  and  _531
REMARK                            x       y       z     vdW  Elec       q    Type
REMARK                         _______ _______ _______ _____ _____    ______ ____
ROOT
ATOM      1  O   HOH     1      31.386  23.989  12.361  0.00  0.00    +0.000 OA
ENDROOT
TORSDOF 0
REMARK  Name = ../refined-set-2016/2qi6/2qi6_pocket.pdb
REMARK  221 active torsions:
REMARK  status: ('A' for Active; 'I' for Inactive)
REMARK    1  A    between atoms: _1  and  _3
REMARK    2  A    between atoms: _3  and  _4
REMARK    3  A    between atoms: _3  and  _6
REMARK    4  A    between atoms: _6  and  _7
REMARK    5  A    between atoms: _7  and  _8
REMARK    6  A    between atoms: _8  and  _9
REMARK    7  A    between atoms: _18  and  _20
REMARK    8  A    between atoms: _20  and  _21
REMARK    9  A    between atoms: _20  and  _23
REMARK   10  A    between atoms: _23  and  _24
REMARK   11  A    between atoms: _27  and  _29
REMARK   12  A    between atoms: _29  and  _30
REMARK   13  A    between atoms: _29  and  _32
REMARK   14  A    between atoms: _32  and  _33
REMARK   15  A    between atoms: _36  and  _38
REMARK   16  A    between atoms: _38  and  _39
REMARK   17  A    between atoms: _38  and  _41
REMARK   18  A    between atoms: _41  and  _42
REMARK   19  A    between atoms: _45  and  _47
REMARK   20  A    between atoms: _47  and  _48
REMARK   21  A    between atoms: _47  and  _50
REMARK   22  A    between atoms: _50  and  _51
REMARK   23  A    between atoms: _54  and  _56
REMARK   24  A    between atoms: _56  and  _57
REMARK   25  A    between atoms: _59  and  _61
REMARK   26  A    between atoms: _61  and  _62
REMARK   27  A    between atoms: _65  and  _67
REMARK   28  A    between atoms: _67  and  _68
REMARK   29  A    between atoms: _67  and  _70
REMARK   30  A    between atoms: _70  and  _71
REMARK   31  A    between atoms: _74  and  _76
REMARK   32  A    between atoms: _76  and  _77
REMARK   33  A    between atoms: _76  and  _79
REMARK   34  A    between atoms: _79  and  _80
REMARK   35  A    between atoms: _83  and  _85
REMARK   36  A    between atoms: _85  and  _86
REMARK   37  A    between atoms: _85  and  _88
REMARK   38  A    between atoms: _88  and  _89
REMARK   39  A    between atoms: _92  and  _94
REMARK   40  A    between atoms: _94  and  _95
REMARK   41  A    between atoms: _94  and  _97
REMARK   42  A    between atoms: _100  and  _102
REMARK   43  A    between atoms: _102  and  _103
REMARK   44  A    between atoms: _102  and  _105
REMARK   45  A    between atoms: _105  and  _106
REMARK   46  A    between atoms: _106  and  _107
REMARK   47  A    between atoms: _107  and  _108
REMARK   48  A    between atoms: _108  and  _109
REMARK   49  A    between atoms: _113  and  _115
REMARK   50  A    between atoms: _115  and  _116
REMARK   51  A    between atoms: _115  and  _118
REMARK   52  A    between atoms: _118  and  _119
REMARK   53  A    between atoms: _119  and  _120
REMARK   54  A    between atoms: _122  and  _124
REMARK   55  A    between atoms: _124  and  _125
REMARK   56  A    between atoms: _124  and  _127
REMARK   57  A    between atoms: _127  and  _128
REMARK   58  A    between atoms: _131  and  _133
REMARK   59  A    between atoms: _133  and  _134
REMARK   60  A    between atoms: _136  and  _138
REMARK   61  A    between atoms: _138  and  _139
REMARK   62  A    between atoms: _141  and  _143
REMARK   63  A    between atoms: _143  and  _144
REMARK   64  A    between atoms: _143  and  _146
REMARK   65  A    between atoms: _146  and  _147
REMARK   66  A    between atoms: _150  and  _152
REMARK   67  A    between atoms: _152  and  _153
REMARK   68  A    between atoms: _155  and  _157
REMARK   69  A    between atoms: _157  and  _158
REMARK   70  A    between atoms: _160  and  _162
REMARK   71  A    between atoms: _162  and  _163
REMARK   72  A    between atoms: _162  and  _165
REMARK   73  A    between atoms: _165  and  _166
REMARK   74  A    between atoms: _169  and  _171
REMARK   75  A    between atoms: _171  and  _172
REMARK   76  A    between atoms: _171  and  _174
REMARK   77  A    between atoms: _177  and  _179
REMARK   78  A    between atoms: _179  and  _180
REMARK   79  A    between atoms: _179  and  _182
REMARK   80  A    between atoms: _182  and  _183
REMARK   81  A    between atoms: _186  and  _188
REMARK   82  A    between atoms: _188  and  _189
REMARK   83  A    between atoms: _188  and  _191
REMARK   84  A    between atoms: _191  and  _192
REMARK   85  A    between atoms: _196  and  _197
REMARK   86  A    between atoms: _202  and  _204
REMARK   87  A    between atoms: _204  and  _205
REMARK   88  A    between atoms: _204  and  _207
REMARK   89  A    between atoms: _210  and  _212
REMARK   90  A    between atoms: _212  and  _213
REMARK   91  A    between atoms: _212  and  _215
REMARK   92  A    between atoms: _215  and  _216
REMARK   93  A    between atoms: _221  and  _223
REMARK   94  A    between atoms: _223  and  _224
REMARK   95  A    between atoms: _223  and  _226
REMARK   96  A    between atoms: _226  and  _227
REMARK   97  A    between atoms: _230  and  _232
REMARK   98  A    between atoms: _232  and  _233
REMARK   99  A    between atoms: _232  and  _235
REMARK  100  A    between atoms: _235  and  _236
REMARK  101  A    between atoms: _239  and  _241
REMARK  102  A    between atoms: _241  and  _242
REMARK  103  A    between atoms: _244  and  _246
REMARK  104  A    between atoms: _246  and  _247
REMARK  105  A    between atoms: _246  and  _249
REMARK  106  A    between atoms: _249  and  _250
REMARK  107  A    between atoms: _250  and  _251
REMARK  108  A    between atoms: _251  and  _252
REMARK  109  A    between atoms: _261  and  _263
REMARK  110  A    between atoms: _263  and  _264
REMARK  111  A    between atoms: _263  and  _266
REMARK  112  A    between atoms: _266  and  _267
REMARK  113  A    between atoms: _267  and  _268
REMARK  114  A    between atoms: _268  and  _269
REMARK  115  A    between atoms: _278  and  _280
REMARK  116  A    between atoms: _280  and  _281
REMARK  117  A    between atoms: _280  and  _283
REMARK  118  A    between atoms: _283  and  _284
REMARK  119  A    between atoms: _287  and  _289
REMARK  120  A    between atoms: _289  and  _290
REMARK  121  A    between atoms: _289  and  _292
REMARK  122  A    between atoms: _292  and  _293
REMARK  123  A    between atoms: _296  and  _298
REMARK  124  A    between atoms: _298  and  _299
REMARK  125  A    between atoms: _298  and  _301
REMARK  126  A    between atoms: _301  and  _302
REMARK  127  A    between atoms: _305  and  _307
REMARK  128  A    between atoms: _307  and  _308
REMARK  129  A    between atoms: _307  and  _310
REMARK  130  A    between atoms: _310  and  _311
REMARK  131  A    between atoms: _314  and  _316
REMARK  132  A    between atoms: _316  and  _317
REMARK  133  A    between atoms: _319  and  _321
REMARK  134  A    between atoms: _321  and  _322
REMARK  135  A    between atoms: _325  and  _327
REMARK  136  A    between atoms: _327  and  _328
REMARK  137  A    between atoms: _327  and  _330
REMARK  138  A    between atoms: _330  and  _331
REMARK  139  A    between atoms: _334  and  _336
REMARK  140  A    between atoms: _336  and  _337
REMARK  141  A    between atoms: _336  and  _339
REMARK  142  A    between atoms: _339  and  _340
REMARK  143  A    between atoms: _343  and  _345
REMARK  144  A    between atoms: _345  and  _346
REMARK  145  A    between atoms: _345  and  _348
REMARK  146  A    between atoms: _348  and  _349
REMARK  147  A    between atoms: _352  and  _354
REMARK  148  A    between atoms: _354  and  _355
REMARK  149  A    between atoms: _354  and  _357
REMARK  150  A    between atoms: _360  and  _362
REMARK  151  A    between atoms: _362  and  _363
REMARK  152  A    between atoms: _362  and  _365
REMARK  153  A    between atoms: _365  and  _366
REMARK  154  A    between atoms: _366  and  _367
REMARK  155  A    between atoms: _367  and  _368
REMARK  156  A    between atoms: _368  and  _369
REMARK  157  A    between atoms: _373  and  _375
REMARK  158  A    between atoms: _375  and  _376
REMARK  159  A    between atoms: _375  and  _378
REMARK  160  A    between atoms: _378  and  _379
REMARK  161  A    between atoms: _379  and  _380
REMARK  162  A    between atoms: _382  and  _384
REMARK  163  A    between atoms: _384  and  _385
REMARK  164  A    between atoms: _384  and  _387
REMARK  165  A    between atoms: _387  and  _388
REMARK  166  A    between atoms: _391  and  _393
REMARK  167  A    between atoms: _393  and  _394
REMARK  168  A    between atoms: _396  and  _398
REMARK  169  A    between atoms: _398  and  _399
REMARK  170  A    between atoms: _401  and  _403
REMARK  171  A    between atoms: _403  and  _404
REMARK  172  A    between atoms: _403  and  _406
REMARK  173  A    between atoms: _406  and  _407
REMARK  174  A    between atoms: _410  and  _412
REMARK  175  A    between atoms: _412  and  _413
REMARK  176  A    between atoms: _415  and  _417
REMARK  177  A    between atoms: _417  and  _418
REMARK  178  A    between atoms: _420  and  _422
REMARK  179  A    between atoms: _422  and  _423
REMARK  180  A    between atoms: _422  and  _425
REMARK  181  A    between atoms: _425  and  _426
REMARK  182  A    between atoms: _432  and  _434
REMARK  183  A    between atoms: _434  and  _435
REMARK  184  A    between atoms: _434  and  _437
REMARK  185  A    between atoms: _437  and  _438
REMARK  186  A    between atoms: _441  and  _443
REMARK  187  A    between atoms: _443  and  _444
REMARK  188  A    between atoms: _443  and  _446
REMARK  189  A    between atoms: _446  and  _447
REMARK  190  A    between atoms: _450  and  _452
REMARK  191  A    between atoms: _452  and  _453
REMARK  192  A    between atoms: _452  and  _455
REMARK  193  A    between atoms: _455  and  _456
REMARK  194  A    between atoms: _460  and  _461
REMARK  195  A    between atoms: _466  and  _468
REMARK  196  A    between atoms: _468  and  _469
REMARK  197  A    between atoms: _468  and  _471
REMARK  198  A    between atoms: _474  and  _476
REMARK  199  A    between atoms: _476  and  _477
REMARK  200  A    between atoms: _476  and  _479
REMARK  201  A    between atoms: _479  and  _480
REMARK  202  A    between atoms: _485  and  _487
REMARK  203  A    between atoms: _487  and  _488
REMARK  204  A    between atoms: _487  and  _490
REMARK  205  A    between atoms: _490  and  _491
REMARK  206  A    between atoms: _494  and  _496
REMARK  207  A    between atoms: _496  and  _497
REMARK  208  A    between atoms: _496  and  _499
REMARK  209  A    between atoms: _499  and  _500
REMARK  210  A    between atoms: _503  and  _505
REMARK  211  A    between atoms: _505  and  _506
REMARK  212  A    between atoms: _508  and  _510
REMARK  213  A    between atoms: _510  and  _511
REMARK  214  A    between atoms: _510  and  _513
REMARK  215  A    between atoms: _513  and  _514
REMARK  216  A    between atoms: _514  and  _515
REMARK  217  A    between atoms: _515  and  _516
REMARK  218  A    between atoms: _525  and  _527
REMARK  219  A    between atoms: _527  and  _528
REMARK  220  A    between atoms: _527  and  _530
REMARK  221  A    between atoms: _530  and  _531
REMARK                            x       y       z     vdW  Elec       q    Type
REMARK                         _______ _______ _______ _____ _____    ______ ____
ROOT
ATOM      1  O   HOH     1      20.257  32.406  11.835  0.00  0.00    +0.000 OA
ENDROOT
TORSDOF 0
REMARK  Name = ../refined-set-2016/2qi6/2qi6_pocket.pdb
REMARK  221 active torsions:
REMARK  status: ('A' for Active; 'I' for Inactive)
REMARK    1  A    between atoms: _1  and  _3
REMARK    2  A    between atoms: _3  and  _4
REMARK    3  A    between atoms: _3  and  _6
REMARK    4  A    between atoms: _6  and  _7
REMARK    5  A    between atoms: _7  and  _8
REMARK    6  A    between atoms: _8  and  _9
REMARK    7  A    between atoms: _18  and  _20
REMARK    8  A    between atoms: _20  and  _21
REMARK    9  A    between atoms: _20  and  _23
REMARK   10  A    between atoms: _23  and  _24
REMARK   11  A    between atoms: _27  and  _29
REMARK   12  A    between atoms: _29  and  _30
REMARK   13  A    between atoms: _29  and  _32
REMARK   14  A    between atoms: _32  and  _33
REMARK   15  A    between atoms: _36  and  _38
REMARK   16  A    between atoms: _38  and  _39
REMARK   17  A    between atoms: _38  and  _41
REMARK   18  A    between atoms: _41  and  _42
REMARK   19  A    between atoms: _45  and  _47
REMARK   20  A    between atoms: _47  and  _48
REMARK   21  A    between atoms: _47  and  _50
REMARK   22  A    between atoms: _50  and  _51
REMARK   23  A    between atoms: _54  and  _56
REMARK   24  A    between atoms: _56  and  _57
REMARK   25  A    between atoms: _59  and  _61
REMARK   26  A    between atoms: _61  and  _62
REMARK   27  A    between atoms: _65  and  _67
REMARK   28  A    between atoms: _67  and  _68
REMARK   29  A    between atoms: _67  and  _70
REMARK   30  A    between atoms: _70  and  _71
REMARK   31  A    between atoms: _74  and  _76
REMARK   32  A    between atoms: _76  and  _77
REMARK   33  A    between atoms: _76  and  _79
REMARK   34  A    between atoms: _79  and  _80
REMARK   35  A    between atoms: _83  and  _85
REMARK   36  A    between atoms: _85  and  _86
REMARK   37  A    between atoms: _85  and  _88
REMARK   38  A    between atoms: _88  and  _89
REMARK   39  A    between atoms: _92  and  _94
REMARK   40  A    between atoms: _94  and  _95
REMARK   41  A    between atoms: _94  and  _97
REMARK   42  A    between atoms: _100  and  _102
REMARK   43  A    between atoms: _102  and  _103
REMARK   44  A    between atoms: _102  and  _105
REMARK   45  A    between atoms: _105  and  _106
REMARK   46  A    between atoms: _106  and  _107
REMARK   47  A    between atoms: _107  and  _108
REMARK   48  A    between atoms: _108  and  _109
REMARK   49  A    between atoms: _113  and  _115
REMARK   50  A    between atoms: _115  and  _116
REMARK   51  A    between atoms: _115  and  _118
REMARK   52  A    between atoms: _118  and  _119
REMARK   53  A    between atoms: _119  and  _120
REMARK   54  A    between atoms: _122  and  _124
REMARK   55  A    between atoms: _124  and  _125
REMARK   56  A    between atoms: _124  and  _127
REMARK   57  A    between atoms: _127  and  _128
REMARK   58  A    between atoms: _131  and  _133
REMARK   59  A    between atoms: _133  and  _134
REMARK   60  A    between atoms: _136  and  _138
REMARK   61  A    between atoms: _138  and  _139
REMARK   62  A    between atoms: _141  and  _143
REMARK   63  A    between atoms: _143  and  _144
REMARK   64  A    between atoms: _143  and  _146
REMARK   65  A    between atoms: _146  and  _147
REMARK   66  A    between atoms: _150  and  _152
REMARK   67  A    between atoms: _152  and  _153
REMARK   68  A    between atoms: _155  and  _157
REMARK   69  A    between atoms: _157  and  _158
REMARK   70  A    between atoms: _160  and  _162
REMARK   71  A    between atoms: _162  and  _163
REMARK   72  A    between atoms: _162  and  _165
REMARK   73  A    between atoms: _165  and  _166
REMARK   74  A    between atoms: _169  and  _171
REMARK   75  A    between atoms: _171  and  _172
REMARK   76  A    between atoms: _171  and  _174
REMARK   77  A    between atoms: _177  and  _179
REMARK   78  A    between atoms: _179  and  _180
REMARK   79  A    between atoms: _179  and  _182
REMARK   80  A    between atoms: _182  and  _183
REMARK   81  A    between atoms: _186  and  _188
REMARK   82  A    between atoms: _188  and  _189
REMARK   83  A    between atoms: _188  and  _191
REMARK   84  A    between atoms: _191  and  _192
REMARK   85  A    between atoms: _196  and  _197
REMARK   86  A    between atoms: _202  and  _204
REMARK   87  A    between atoms: _204  and  _205
REMARK   88  A    between atoms: _204  and  _207
REMARK   89  A    between atoms: _210  and  _212
REMARK   90  A    between atoms: _212  and  _213
REMARK   91  A    between atoms: _212  and  _215
REMARK   92  A    between atoms: _215  and  _216
REMARK   93  A    between atoms: _221  and  _223
REMARK   94  A    between atoms: _223  and  _224
REMARK   95  A    between atoms: _223  and  _226
REMARK   96  A    between atoms: _226  and  _227
REMARK   97  A    between atoms: _230  and  _232
REMARK   98  A    between atoms: _232  and  _233
REMARK   99  A    between atoms: _232  and  _235
REMARK  100  A    between atoms: _235  and  _236
REMARK  101  A    between atoms: _239  and  _241
REMARK  102  A    between atoms: _241  and  _242
REMARK  103  A    between atoms: _244  and  _246
REMARK  104  A    between atoms: _246  and  _247
REMARK  105  A    between atoms: _246  and  _249
REMARK  106  A    between atoms: _249  and  _250
REMARK  107  A    between atoms: _250  and  _251
REMARK  108  A    between atoms: _251  and  _252
REMARK  109  A    between atoms: _261  and  _263
REMARK  110  A    between atoms: _263  and  _264
REMARK  111  A    between atoms: _263  and  _266
REMARK  112  A    between atoms: _266  and  _267
REMARK  113  A    between atoms: _267  and  _268
REMARK  114  A    between atoms: _268  and  _269
REMARK  115  A    between atoms: _278  and  _280
REMARK  116  A    between atoms: _280  and  _281
REMARK  117  A    between atoms: _280  and  _283
REMARK  118  A    between atoms: _283  and  _284
REMARK  119  A    between atoms: _287  and  _289
REMARK  120  A    between atoms: _289  and  _290
REMARK  121  A    between atoms: _289  and  _292
REMARK  122  A    between atoms: _292  and  _293
REMARK  123  A    between atoms: _296  and  _298
REMARK  124  A    between atoms: _298  and  _299
REMARK  125  A    between atoms: _298  and  _301
REMARK  126  A    between atoms: _301  and  _302
REMARK  127  A    between atoms: _305  and  _307
REMARK  128  A    between atoms: _307  and  _308
REMARK  129  A    between atoms: _307  and  _310
REMARK  130  A    between atoms: _310  and  _311
REMARK  131  A    between atoms: _314  and  _316
REMARK  132  A    between atoms: _316  and  _317
REMARK  133  A    between atoms: _319  and  _321
REMARK  134  A    between atoms: _321  and  _322
REMARK  135  A    between atoms: _325  and  _327
REMARK  136  A    between atoms: _327  and  _328
REMARK  137  A    between atoms: _327  and  _330
REMARK  138  A    between atoms: _330  and  _331
REMARK  139  A    between atoms: _334  and  _336
REMARK  140  A    between atoms: _336  and  _337
REMARK  141  A    between atoms: _336  and  _339
REMARK  142  A    between atoms: _339  and  _340
REMARK  143  A    between atoms: _343  and  _345
REMARK  144  A    between atoms: _345  and  _346
REMARK  145  A    between atoms: _345  and  _348
REMARK  146  A    between atoms: _348  and  _349
REMARK  147  A    between atoms: _352  and  _354
REMARK  148  A    between atoms: _354  and  _355
REMARK  149  A    between atoms: _354  and  _357
REMARK  150  A    between atoms: _360  and  _362
REMARK  151  A    between atoms: _362  and  _363
REMARK  152  A    between atoms: _362  and  _365
REMARK  153  A    between atoms: _365  and  _366
REMARK  154  A    between atoms: _366  and  _367
REMARK  155  A    between atoms: _367  and  _368
REMARK  156  A    between atoms: _368  and  _369
REMARK  157  A    between atoms: _373  and  _375
REMARK  158  A    between atoms: _375  and  _376
REMARK  159  A    between atoms: _375  and  _378
REMARK  160  A    between atoms: _378  and  _379
REMARK  161  A    between atoms: _379  and  _380
REMARK  162  A    between atoms: _382  and  _384
REMARK  163  A    between atoms: _384  and  _385
REMARK  164  A    between atoms: _384  and  _387
REMARK  165  A    between atoms: _387  and  _388
REMARK  166  A    between atoms: _391  and  _393
REMARK  167  A    between atoms: _393  and  _394
REMARK  168  A    between atoms: _396  and  _398
REMARK  169  A    between atoms: _398  and  _399
REMARK  170  A    between atoms: _401  and  _403
REMARK  171  A    between atoms: _403  and  _404
REMARK  172  A    between atoms: _403  and  _406
REMARK  173  A    between atoms: _406  and  _407
REMARK  174  A    between atoms: _410  and  _412
REMARK  175  A    between atoms: _412  and  _413
REMARK  176  A    between atoms: _415  and  _417
REMARK  177  A    between atoms: _417  and  _418
REMARK  178  A    between atoms: _420  and  _422
REMARK  179  A    between atoms: _422  and  _423
REMARK  180  A    between atoms: _422  and  _425
REMARK  181  A    between atoms: _425  and  _426
REMARK  182  A    between atoms: _432  and  _434
REMARK  183  A    between atoms: _434  and  _435
REMARK  184  A    between atoms: _434  and  _437
REMARK  185  A    between atoms: _437  and  _438
REMARK  186  A    between atoms: _441  and  _443
REMARK  187  A    between atoms: _443  and  _444
REMARK  188  A    between atoms: _443  and  _446
REMARK  189  A    between atoms: _446  and  _447
REMARK  190  A    between atoms: _450  and  _452
REMARK  191  A    between atoms: _452  and  _453
REMARK  192  A    between atoms: _452  and  _455
REMARK  193  A    between atoms: _455  and  _456
REMARK  194  A    between atoms: _460  and  _461
REMARK  195  A    between atoms: _466  and  _468
REMARK  196  A    between atoms: _468  and  _469
REMARK  197  A    between atoms: _468  and  _471
REMARK  198  A    between atoms: _474  and  _476
REMARK  199  A    between atoms: _476  and  _477
REMARK  200  A    between atoms: _476  and  _479
REMARK  201  A    between atoms: _479  and  _480
REMARK  202  A    between atoms: _485  and  _487
REMARK  203  A    between atoms: _487  and  _488
REMARK  204  A    between atoms: _487  and  _490
REMARK  205  A    between atoms: _490  and  _491
REMARK  206  A    between atoms: _494  and  _496
REMARK  207  A    between atoms: _496  and  _497
REMARK  208  A    between atoms: _496  and  _499
REMARK  209  A    between atoms: _499  and  _500
REMARK  210  A    between atoms: _503  and  _505
REMARK  211  A    between atoms: _505  and  _506
REMARK  212  A    between atoms: _508  and  _510
REMARK  213  A    between atoms: _510  and  _511
REMARK  214  A    between atoms: _510  and  _513
REMARK  215  A    between atoms: _513  and  _514
REMARK  216  A    between atoms: _514  and  _515
REMARK  217  A    between atoms: _515  and  _516
REMARK  218  A    between atoms: _525  and  _527
REMARK  219  A    between atoms: _527  and  _528
REMARK  220  A    between atoms: _527  and  _530
REMARK  221  A    between atoms: _530  and  _531
REMARK                            x       y       z     vdW  Elec       q    Type
REMARK                         _______ _______ _______ _____ _____    ______ ____
ROOT
ATOM      1  O   HOH     1      19.627  23.219  13.169  0.00  0.00    +0.000 OA
ENDROOT
TORSDOF 0
REMARK  Name = ../refined-set-2016/2qi6/2qi6_pocket.pdb
REMARK  221 active torsions:
REMARK  status: ('A' for Active; 'I' for Inactive)
REMARK    1  A    between atoms: _1  and  _3
REMARK    2  A    between atoms: _3  and  _4
REMARK    3  A    between atoms: _3  and  _6
REMARK    4  A    between atoms: _6  and  _7
REMARK    5  A    between atoms: _7  and  _8
REMARK    6  A    between atoms: _8  and  _9
REMARK    7  A    between atoms: _18  and  _20
REMARK    8  A    between atoms: _20  and  _21
REMARK    9  A    between atoms: _20  and  _23
REMARK   10  A    between atoms: _23  and  _24
REMARK   11  A    between atoms: _27  and  _29
REMARK   12  A    between atoms: _29  and  _30
REMARK   13  A    between atoms: _29  and  _32
REMARK   14  A    between atoms: _32  and  _33
REMARK   15  A    between atoms: _36  and  _38
REMARK   16  A    between atoms: _38  and  _39
REMARK   17  A    between atoms: _38  and  _41
REMARK   18  A    between atoms: _41  and  _42
REMARK   19  A    between atoms: _45  and  _47
REMARK   20  A    between atoms: _47  and  _48
REMARK   21  A    between atoms: _47  and  _50
REMARK   22  A    between atoms: _50  and  _51
REMARK   23  A    between atoms: _54  and  _56
REMARK   24  A    between atoms: _56  and  _57
REMARK   25  A    between atoms: _59  and  _61
REMARK   26  A    between atoms: _61  and  _62
REMARK   27  A    between atoms: _65  and  _67
REMARK   28  A    between atoms: _67  and  _68
REMARK   29  A    between atoms: _67  and  _70
REMARK   30  A    between atoms: _70  and  _71
REMARK   31  A    between atoms: _74  and  _76
REMARK   32  A    between atoms: _76  and  _77
REMARK   33  A    between atoms: _76  and  _79
REMARK   34  A    between atoms: _79  and  _80
REMARK   35  A    between atoms: _83  and  _85
REMARK   36  A    between atoms: _85  and  _86
REMARK   37  A    between atoms: _85  and  _88
REMARK   38  A    between atoms: _88  and  _89
REMARK   39  A    between atoms: _92  and  _94
REMARK   40  A    between atoms: _94  and  _95
REMARK   41  A    between atoms: _94  and  _97
REMARK   42  A    between atoms: _100  and  _102
REMARK   43  A    between atoms: _102  and  _103
REMARK   44  A    between atoms: _102  and  _105
REMARK   45  A    between atoms: _105  and  _106
REMARK   46  A    between atoms: _106  and  _107
REMARK   47  A    between atoms: _107  and  _108
REMARK   48  A    between atoms: _108  and  _109
REMARK   49  A    between atoms: _113  and  _115
REMARK   50  A    between atoms: _115  and  _116
REMARK   51  A    between atoms: _115  and  _118
REMARK   52  A    between atoms: _118  and  _119
REMARK   53  A    between atoms: _119  and  _120
REMARK   54  A    between atoms: _122  and  _124
REMARK   55  A    between atoms: _124  and  _125
REMARK   56  A    between atoms: _124  and  _127
REMARK   57  A    between atoms: _127  and  _128
REMARK   58  A    between atoms: _131  and  _133
REMARK   59  A    between atoms: _133  and  _134
REMARK   60  A    between atoms: _136  and  _138
REMARK   61  A    between atoms: _138  and  _139
REMARK   62  A    between atoms: _141  and  _143
REMARK   63  A    between atoms: _143  and  _144
REMARK   64  A    between atoms: _143  and  _146
REMARK   65  A    between atoms: _146  and  _147
REMARK   66  A    between atoms: _150  and  _152
REMARK   67  A    between atoms: _152  and  _153
REMARK   68  A    between atoms: _155  and  _157
REMARK   69  A    between atoms: _157  and  _158
REMARK   70  A    between atoms: _160  and  _162
REMARK   71  A    between atoms: _162  and  _163
REMARK   72  A    between atoms: _162  and  _165
REMARK   73  A    between atoms: _165  and  _166
REMARK   74  A    between atoms: _169  and  _171
REMARK   75  A    between atoms: _171  and  _172
REMARK   76  A    between atoms: _171  and  _174
REMARK   77  A    between atoms: _177  and  _179
REMARK   78  A    between atoms: _179  and  _180
REMARK   79  A    between atoms: _179  and  _182
REMARK   80  A    between atoms: _182  and  _183
REMARK   81  A    between atoms: _186  and  _188
REMARK   82  A    between atoms: _188  and  _189
REMARK   83  A    between atoms: _188  and  _191
REMARK   84  A    between atoms: _191  and  _192
REMARK   85  A    between atoms: _196  and  _197
REMARK   86  A    between atoms: _202  and  _204
REMARK   87  A    between atoms: _204  and  _205
REMARK   88  A    between atoms: _204  and  _207
REMARK   89  A    between atoms: _210  and  _212
REMARK   90  A    between atoms: _212  and  _213
REMARK   91  A    between atoms: _212  and  _215
REMARK   92  A    between atoms: _215  and  _216
REMARK   93  A    between atoms: _221  and  _223
REMARK   94  A    between atoms: _223  and  _224
REMARK   95  A    between atoms: _223  and  _226
REMARK   96  A    between atoms: _226  and  _227
REMARK   97  A    between atoms: _230  and  _232
REMARK   98  A    between atoms: _232  and  _233
REMARK   99  A    between atoms: _232  and  _235
REMARK  100  A    between atoms: _235  and  _236
REMARK  101  A    between atoms: _239  and  _241
REMARK  102  A    between atoms: _241  and  _242
REMARK  103  A    between atoms: _244  and  _246
REMARK  104  A    between atoms: _246  and  _247
REMARK  105  A    between atoms: _246  and  _249
REMARK  106  A    between atoms: _249  and  _250
REMARK  107  A    between atoms: _250  and  _251
REMARK  108  A    between atoms: _251  and  _252
REMARK  109  A    between atoms: _261  and  _263
REMARK  110  A    between atoms: _263  and  _264
REMARK  111  A    between atoms: _263  and  _266
REMARK  112  A    between atoms: _266  and  _267
REMARK  113  A    between atoms: _267  and  _268
REMARK  114  A    between atoms: _268  and  _269
REMARK  115  A    between atoms: _278  and  _280
REMARK  116  A    between atoms: _280  and  _281
REMARK  117  A    between atoms: _280  and  _283
REMARK  118  A    between atoms: _283  and  _284
REMARK  119  A    between atoms: _287  and  _289
REMARK  120  A    between atoms: _289  and  _290
REMARK  121  A    between atoms: _289  and  _292
REMARK  122  A    between atoms: _292  and  _293
REMARK  123  A    between atoms: _296  and  _298
REMARK  124  A    between atoms: _298  and  _299
REMARK  125  A    between atoms: _298  and  _301
REMARK  126  A    between atoms: _301  and  _302
REMARK  127  A    between atoms: _305  and  _307
REMARK  128  A    between atoms: _307  and  _308
REMARK  129  A    between atoms: _307  and  _310
REMARK  130  A    between atoms: _310  and  _311
REMARK  131  A    between atoms: _314  and  _316
REMARK  132  A    between atoms: _316  and  _317
REMARK  133  A    between atoms: _319  and  _321
REMARK  134  A    between atoms: _321  and  _322
REMARK  135  A    between atoms: _325  and  _327
REMARK  136  A    between atoms: _327  and  _328
REMARK  137  A    between atoms: _327  and  _330
REMARK  138  A    between atoms: _330  and  _331
REMARK  139  A    between atoms: _334  and  _336
REMARK  140  A    between atoms: _336  and  _337
REMARK  141  A    between atoms: _336  and  _339
REMARK  142  A    between atoms: _339  and  _340
REMARK  143  A    between atoms: _343  and  _345
REMARK  144  A    between atoms: _345  and  _346
REMARK  145  A    between atoms: _345  and  _348
REMARK  146  A    between atoms: _348  and  _349
REMARK  147  A    between atoms: _352  and  _354
REMARK  148  A    between atoms: _354  and  _355
REMARK  149  A    between atoms: _354  and  _357
REMARK  150  A    between atoms: _360  and  _362
REMARK  151  A    between atoms: _362  and  _363
REMARK  152  A    between atoms: _362  and  _365
REMARK  153  A    between atoms: _365  and  _366
REMARK  154  A    between atoms: _366  and  _367
REMARK  155  A    between atoms: _367  and  _368
REMARK  156  A    between atoms: _368  and  _369
REMARK  157  A    between atoms: _373  and  _375
REMARK  158  A    between atoms: _375  and  _376
REMARK  159  A    between atoms: _375  and  _378
REMARK  160  A    between atoms: _378  and  _379
REMARK  161  A    between atoms: _379  and  _380
REMARK  162  A    between atoms: _382  and  _384
REMARK  163  A    between atoms: _384  and  _385
REMARK  164  A    between atoms: _384  and  _387
REMARK  165  A    between atoms: _387  and  _388
REMARK  166  A    between atoms: _391  and  _393
REMARK  167  A    between atoms: _393  and  _394
REMARK  168  A    between atoms: _396  and  _398
REMARK  169  A    between atoms: _398  and  _399
REMARK  170  A    between atoms: _401  and  _403
REMARK  171  A    between atoms: _403  and  _404
REMARK  172  A    between atoms: _403  and  _406
REMARK  173  A    between atoms: _406  and  _407
REMARK  174  A    between atoms: _410  and  _412
REMARK  175  A    between atoms: _412  and  _413
REMARK  176  A    between atoms: _415  and  _417
REMARK  177  A    between atoms: _417  and  _418
REMARK  178  A    between atoms: _420  and  _422
REMARK  179  A    between atoms: _422  and  _423
REMARK  180  A    between atoms: _422  and  _425
REMARK  181  A    between atoms: _425  and  _426
REMARK  182  A    between atoms: _432  and  _434
REMARK  183  A    between atoms: _434  and  _435
REMARK  184  A    between atoms: _434  and  _437
REMARK  185  A    between atoms: _437  and  _438
REMARK  186  A    between atoms: _441  and  _443
REMARK  187  A    between atoms: _443  and  _444
REMARK  188  A    between atoms: _443  and  _446
REMARK  189  A    between atoms: _446  and  _447
REMARK  190  A    between atoms: _450  and  _452
REMARK  191  A    between atoms: _452  and  _453
REMARK  192  A    between atoms: _452  and  _455
REMARK  193  A    between atoms: _455  and  _456
REMARK  194  A    between atoms: _460  and  _461
REMARK  195  A    between atoms: _466  and  _468
REMARK  196  A    between atoms: _468  and  _469
REMARK  197  A    between atoms: _468  and  _471
REMARK  198  A    between atoms: _474  and  _476
REMARK  199  A    between atoms: _476  and  _477
REMARK  200  A    between atoms: _476  and  _479
REMARK  201  A    between atoms: _479  and  _480
REMARK  202  A    between atoms: _485  and  _487
REMARK  203  A    between atoms: _487  and  _488
REMARK  204  A    between atoms: _487  and  _490
REMARK  205  A    between atoms: _490  and  _491
REMARK  206  A    between atoms: _494  and  _496
REMARK  207  A    between atoms: _496  and  _497
REMARK  208  A    between atoms: _496  and  _499
REMARK  209  A    between atoms: _499  and  _500
REMARK  210  A    between atoms: _503  and  _505
REMARK  211  A    between atoms: _505  and  _506
REMARK  212  A    between atoms: _508  and  _510
REMARK  213  A    between atoms: _510  and  _511
REMARK  214  A    between atoms: _510  and  _513
REMARK  215  A    between atoms: _513  and  _514
REMARK  216  A    between atoms: _514  and  _515
REMARK  217  A    between atoms: _515  and  _516
REMARK  218  A    between atoms: _525  and  _527
REMARK  219  A    between atoms: _527  and  _528
REMARK  220  A    between atoms: _527  and  _530
REMARK  221  A    between atoms: _530  and  _531
REMARK                            x       y       z     vdW  Elec       q    Type
REMARK                         _______ _______ _______ _____ _____    ______ ____
ROOT
ATOM      1  O   HOH     1      25.225  24.065   7.378  0.00  0.00    +0.000 OA
ENDROOT
TORSDOF 0
REMARK  Name = ../refined-set-2016/2qi6/2qi6_pocket.pdb
REMARK  221 active torsions:
REMARK  status: ('A' for Active; 'I' for Inactive)
REMARK    1  A    between atoms: _1  and  _3
REMARK    2  A    between atoms: _3  and  _4
REMARK    3  A    between atoms: _3  and  _6
REMARK    4  A    between atoms: _6  and  _7
REMARK    5  A    between atoms: _7  and  _8
REMARK    6  A    between atoms: _8  and  _9
REMARK    7  A    between atoms: _18  and  _20
REMARK    8  A    between atoms: _20  and  _21
REMARK    9  A    between atoms: _20  and  _23
REMARK   10  A    between atoms: _23  and  _24
REMARK   11  A    between atoms: _27  and  _29
REMARK   12  A    between atoms: _29  and  _30
REMARK   13  A    between atoms: _29  and  _32
REMARK   14  A    between atoms: _32  and  _33
REMARK   15  A    between atoms: _36  and  _38
REMARK   16  A    between atoms: _38  and  _39
REMARK   17  A    between atoms: _38  and  _41
REMARK   18  A    between atoms: _41  and  _42
REMARK   19  A    between atoms: _45  and  _47
REMARK   20  A    between atoms: _47  and  _48
REMARK   21  A    between atoms: _47  and  _50
REMARK   22  A    between atoms: _50  and  _51
REMARK   23  A    between atoms: _54  and  _56
REMARK   24  A    between atoms: _56  and  _57
REMARK   25  A    between atoms: _59  and  _61
REMARK   26  A    between atoms: _61  and  _62
REMARK   27  A    between atoms: _65  and  _67
REMARK   28  A    between atoms: _67  and  _68
REMARK   29  A    between atoms: _67  and  _70
REMARK   30  A    between atoms: _70  and  _71
REMARK   31  A    between atoms: _74  and  _76
REMARK   32  A    between atoms: _76  and  _77
REMARK   33  A    between atoms: _76  and  _79
REMARK   34  A    between atoms: _79  and  _80
REMARK   35  A    between atoms: _83  and  _85
REMARK   36  A    between atoms: _85  and  _86
REMARK   37  A    between atoms: _85  and  _88
REMARK   38  A    between atoms: _88  and  _89
REMARK   39  A    between atoms: _92  and  _94
REMARK   40  A    between atoms: _94  and  _95
REMARK   41  A    between atoms: _94  and  _97
REMARK   42  A    between atoms: _100  and  _102
REMARK   43  A    between atoms: _102  and  _103
REMARK   44  A    between atoms: _102  and  _105
REMARK   45  A    between atoms: _105  and  _106
REMARK   46  A    between atoms: _106  and  _107
REMARK   47  A    between atoms: _107  and  _108
REMARK   48  A    between atoms: _108  and  _109
REMARK   49  A    between atoms: _113  and  _115
REMARK   50  A    between atoms: _115  and  _116
REMARK   51  A    between atoms: _115  and  _118
REMARK   52  A    between atoms: _118  and  _119
REMARK   53  A    between atoms: _119  and  _120
REMARK   54  A    between atoms: _122  and  _124
REMARK   55  A    between atoms: _124  and  _125
REMARK   56  A    between atoms: _124  and  _127
REMARK   57  A    between atoms: _127  and  _128
REMARK   58  A    between atoms: _131  and  _133
REMARK   59  A    between atoms: _133  and  _134
REMARK   60  A    between atoms: _136  and  _138
REMARK   61  A    between atoms: _138  and  _139
REMARK   62  A    between atoms: _141  and  _143
REMARK   63  A    between atoms: _143  and  _144
REMARK   64  A    between atoms: _143  and  _146
REMARK   65  A    between atoms: _146  and  _147
REMARK   66  A    between atoms: _150  and  _152
REMARK   67  A    between atoms: _152  and  _153
REMARK   68  A    between atoms: _155  and  _157
REMARK   69  A    between atoms: _157  and  _158
REMARK   70  A    between atoms: _160  and  _162
REMARK   71  A    between atoms: _162  and  _163
REMARK   72  A    between atoms: _162  and  _165
REMARK   73  A    between atoms: _165  and  _166
REMARK   74  A    between atoms: _169  and  _171
REMARK   75  A    between atoms: _171  and  _172
REMARK   76  A    between atoms: _171  and  _174
REMARK   77  A    between atoms: _177  and  _179
REMARK   78  A    between atoms: _179  and  _180
REMARK   79  A    between atoms: _179  and  _182
REMARK   80  A    between atoms: _182  and  _183
REMARK   81  A    between atoms: _186  and  _188
REMARK   82  A    between atoms: _188  and  _189
REMARK   83  A    between atoms: _188  and  _191
REMARK   84  A    between atoms: _191  and  _192
REMARK   85  A    between atoms: _196  and  _197
REMARK   86  A    between atoms: _202  and  _204
REMARK   87  A    between atoms: _204  and  _205
REMARK   88  A    between atoms: _204  and  _207
REMARK   89  A    between atoms: _210  and  _212
REMARK   90  A    between atoms: _212  and  _213
REMARK   91  A    between atoms: _212  and  _215
REMARK   92  A    between atoms: _215  and  _216
REMARK   93  A    between atoms: _221  and  _223
REMARK   94  A    between atoms: _223  and  _224
REMARK   95  A    between atoms: _223  and  _226
REMARK   96  A    between atoms: _226  and  _227
REMARK   97  A    between atoms: _230  and  _232
REMARK   98  A    between atoms: _232  and  _233
REMARK   99  A    between atoms: _232  and  _235
REMARK  100  A    between atoms: _235  and  _236
REMARK  101  A    between atoms: _239  and  _241
REMARK  102  A    between atoms: _241  and  _242
REMARK  103  A    between atoms: _244  and  _246
REMARK  104  A    between atoms: _246  and  _247
REMARK  105  A    between atoms: _246  and  _249
REMARK  106  A    between atoms: _249  and  _250
REMARK  107  A    between atoms: _250  and  _251
REMARK  108  A    between atoms: _251  and  _252
REMARK  109  A    between atoms: _261  and  _263
REMARK  110  A    between atoms: _263  and  _264
REMARK  111  A    between atoms: _263  and  _266
REMARK  112  A    between atoms: _266  and  _267
REMARK  113  A    between atoms: _267  and  _268
REMARK  114  A    between atoms: _268  and  _269
REMARK  115  A    between atoms: _278  and  _280
REMARK  116  A    between atoms: _280  and  _281
REMARK  117  A    between atoms: _280  and  _283
REMARK  118  A    between atoms: _283  and  _284
REMARK  119  A    between atoms: _287  and  _289
REMARK  120  A    between atoms: _289  and  _290
REMARK  121  A    between atoms: _289  and  _292
REMARK  122  A    between atoms: _292  and  _293
REMARK  123  A    between atoms: _296  and  _298
REMARK  124  A    between atoms: _298  and  _299
REMARK  125  A    between atoms: _298  and  _301
REMARK  126  A    between atoms: _301  and  _302
REMARK  127  A    between atoms: _305  and  _307
REMARK  128  A    between atoms: _307  and  _308
REMARK  129  A    between atoms: _307  and  _310
REMARK  130  A    between atoms: _310  and  _311
REMARK  131  A    between atoms: _314  and  _316
REMARK  132  A    between atoms: _316  and  _317
REMARK  133  A    between atoms: _319  and  _321
REMARK  134  A    between atoms: _321  and  _322
REMARK  135  A    between atoms: _325  and  _327
REMARK  136  A    between atoms: _327  and  _328
REMARK  137  A    between atoms: _327  and  _330
REMARK  138  A    between atoms: _330  and  _331
REMARK  139  A    between atoms: _334  and  _336
REMARK  140  A    between atoms: _336  and  _337
REMARK  141  A    between atoms: _336  and  _339
REMARK  142  A    between atoms: _339  and  _340
REMARK  143  A    between atoms: _343  and  _345
REMARK  144  A    between atoms: _345  and  _346
REMARK  145  A    between atoms: _345  and  _348
REMARK  146  A    between atoms: _348  and  _349
REMARK  147  A    between atoms: _352  and  _354
REMARK  148  A    between atoms: _354  and  _355
REMARK  149  A    between atoms: _354  and  _357
REMARK  150  A    between atoms: _360  and  _362
REMARK  151  A    between atoms: _362  and  _363
REMARK  152  A    between atoms: _362  and  _365
REMARK  153  A    between atoms: _365  and  _366
REMARK  154  A    between atoms: _366  and  _367
REMARK  155  A    between atoms: _367  and  _368
REMARK  156  A    between atoms: _368  and  _369
REMARK  157  A    between atoms: _373  and  _375
REMARK  158  A    between atoms: _375  and  _376
REMARK  159  A    between atoms: _375  and  _378
REMARK  160  A    between atoms: _378  and  _379
REMARK  161  A    between atoms: _379  and  _380
REMARK  162  A    between atoms: _382  and  _384
REMARK  163  A    between atoms: _384  and  _385
REMARK  164  A    between atoms: _384  and  _387
REMARK  165  A    between atoms: _387  and  _388
REMARK  166  A    between atoms: _391  and  _393
REMARK  167  A    between atoms: _393  and  _394
REMARK  168  A    between atoms: _396  and  _398
REMARK  169  A    between atoms: _398  and  _399
REMARK  170  A    between atoms: _401  and  _403
REMARK  171  A    between atoms: _403  and  _404
REMARK  172  A    between atoms: _403  and  _406
REMARK  173  A    between atoms: _406  and  _407
REMARK  174  A    between atoms: _410  and  _412
REMARK  175  A    between atoms: _412  and  _413
REMARK  176  A    between atoms: _415  and  _417
REMARK  177  A    between atoms: _417  and  _418
REMARK  178  A    between atoms: _420  and  _422
REMARK  179  A    between atoms: _422  and  _423
REMARK  180  A    between atoms: _422  and  _425
REMARK  181  A    between atoms: _425  and  _426
REMARK  182  A    between atoms: _432  and  _434
REMARK  183  A    between atoms: _434  and  _435
REMARK  184  A    between atoms: _434  and  _437
REMARK  185  A    between atoms: _437  and  _438
REMARK  186  A    between atoms: _441  and  _443
REMARK  187  A    between atoms: _443  and  _444
REMARK  188  A    between atoms: _443  and  _446
REMARK  189  A    between atoms: _446  and  _447
REMARK  190  A    between atoms: _450  and  _452
REMARK  191  A    between atoms: _452  and  _453
REMARK  192  A    between atoms: _452  and  _455
REMARK  193  A    between atoms: _455  and  _456
REMARK  194  A    between atoms: _460  and  _461
REMARK  195  A    between atoms: _466  and  _468
REMARK  196  A    between atoms: _468  and  _469
REMARK  197  A    between atoms: _468  and  _471
REMARK  198  A    between atoms: _474  and  _476
REMARK  199  A    between atoms: _476  and  _477
REMARK  200  A    between atoms: _476  and  _479
REMARK  201  A    between atoms: _479  and  _480
REMARK  202  A    between atoms: _485  and  _487
REMARK  203  A    between atoms: _487  and  _488
REMARK  204  A    between atoms: _487  and  _490
REMARK  205  A    between atoms: _490  and  _491
REMARK  206  A    between atoms: _494  and  _496
REMARK  207  A    between atoms: _496  and  _497
REMARK  208  A    between atoms: _496  and  _499
REMARK  209  A    between atoms: _499  and  _500
REMARK  210  A    between atoms: _503  and  _505
REMARK  211  A    between atoms: _505  and  _506
REMARK  212  A    between atoms: _508  and  _510
REMARK  213  A    between atoms: _510  and  _511
REMARK  214  A    between atoms: _510  and  _513
REMARK  215  A    between atoms: _513  and  _514
REMARK  216  A    between atoms: _514  and  _515
REMARK  217  A    between atoms: _515  and  _516
REMARK  218  A    between atoms: _525  and  _527
REMARK  219  A    between atoms: _527  and  _528
REMARK  220  A    between atoms: _527  and  _530
REMARK  221  A    between atoms: _530  and  _531
REMARK                            x       y       z     vdW  Elec       q    Type
REMARK                         _______ _______ _______ _____ _____    ______ ____
ROOT
ATOM      1  O   HOH     1      24.136  21.804   7.952  0.00  0.00    +0.000 OA
ENDROOT
TORSDOF 0
REMARK  Name = ../refined-set-2016/2qi6/2qi6_pocket.pdb
REMARK  221 active torsions:
REMARK  status: ('A' for Active; 'I' for Inactive)
REMARK    1  A    between atoms: _1  and  _3
REMARK    2  A    between atoms: _3  and  _4
REMARK    3  A    between atoms: _3  and  _6
REMARK    4  A    between atoms: _6  and  _7
REMARK    5  A    between atoms: _7  and  _8
REMARK    6  A    between atoms: _8  and  _9
REMARK    7  A    between atoms: _18  and  _20
REMARK    8  A    between atoms: _20  and  _21
REMARK    9  A    between atoms: _20  and  _23
REMARK   10  A    between atoms: _23  and  _24
REMARK   11  A    between atoms: _27  and  _29
REMARK   12  A    between atoms: _29  and  _30
REMARK   13  A    between atoms: _29  and  _32
REMARK   14  A    between atoms: _32  and  _33
REMARK   15  A    between atoms: _36  and  _38
REMARK   16  A    between atoms: _38  and  _39
REMARK   17  A    between atoms: _38  and  _41
REMARK   18  A    between atoms: _41  and  _42
REMARK   19  A    between atoms: _45  and  _47
REMARK   20  A    between atoms: _47  and  _48
REMARK   21  A    between atoms: _47  and  _50
REMARK   22  A    between atoms: _50  and  _51
REMARK   23  A    between atoms: _54  and  _56
REMARK   24  A    between atoms: _56  and  _57
REMARK   25  A    between atoms: _59  and  _61
REMARK   26  A    between atoms: _61  and  _62
REMARK   27  A    between atoms: _65  and  _67
REMARK   28  A    between atoms: _67  and  _68
REMARK   29  A    between atoms: _67  and  _70
REMARK   30  A    between atoms: _70  and  _71
REMARK   31  A    between atoms: _74  and  _76
REMARK   32  A    between atoms: _76  and  _77
REMARK   33  A    between atoms: _76  and  _79
REMARK   34  A    between atoms: _79  and  _80
REMARK   35  A    between atoms: _83  and  _85
REMARK   36  A    between atoms: _85  and  _86
REMARK   37  A    between atoms: _85  and  _88
REMARK   38  A    between atoms: _88  and  _89
REMARK   39  A    between atoms: _92  and  _94
REMARK   40  A    between atoms: _94  and  _95
REMARK   41  A    between atoms: _94  and  _97
REMARK   42  A    between atoms: _100  and  _102
REMARK   43  A    between atoms: _102  and  _103
REMARK   44  A    between atoms: _102  and  _105
REMARK   45  A    between atoms: _105  and  _106
REMARK   46  A    between atoms: _106  and  _107
REMARK   47  A    between atoms: _107  and  _108
REMARK   48  A    between atoms: _108  and  _109
REMARK   49  A    between atoms: _113  and  _115
REMARK   50  A    between atoms: _115  and  _116
REMARK   51  A    between atoms: _115  and  _118
REMARK   52  A    between atoms: _118  and  _119
REMARK   53  A    between atoms: _119  and  _120
REMARK   54  A    between atoms: _122  and  _124
REMARK   55  A    between atoms: _124  and  _125
REMARK   56  A    between atoms: _124  and  _127
REMARK   57  A    between atoms: _127  and  _128
REMARK   58  A    between atoms: _131  and  _133
REMARK   59  A    between atoms: _133  and  _134
REMARK   60  A    between atoms: _136  and  _138
REMARK   61  A    between atoms: _138  and  _139
REMARK   62  A    between atoms: _141  and  _143
REMARK   63  A    between atoms: _143  and  _144
REMARK   64  A    between atoms: _143  and  _146
REMARK   65  A    between atoms: _146  and  _147
REMARK   66  A    between atoms: _150  and  _152
REMARK   67  A    between atoms: _152  and  _153
REMARK   68  A    between atoms: _155  and  _157
REMARK   69  A    between atoms: _157  and  _158
REMARK   70  A    between atoms: _160  and  _162
REMARK   71  A    between atoms: _162  and  _163
REMARK   72  A    between atoms: _162  and  _165
REMARK   73  A    between atoms: _165  and  _166
REMARK   74  A    between atoms: _169  and  _171
REMARK   75  A    between atoms: _171  and  _172
REMARK   76  A    between atoms: _171  and  _174
REMARK   77  A    between atoms: _177  and  _179
REMARK   78  A    between atoms: _179  and  _180
REMARK   79  A    between atoms: _179  and  _182
REMARK   80  A    between atoms: _182  and  _183
REMARK   81  A    between atoms: _186  and  _188
REMARK   82  A    between atoms: _188  and  _189
REMARK   83  A    between atoms: _188  and  _191
REMARK   84  A    between atoms: _191  and  _192
REMARK   85  A    between atoms: _196  and  _197
REMARK   86  A    between atoms: _202  and  _204
REMARK   87  A    between atoms: _204  and  _205
REMARK   88  A    between atoms: _204  and  _207
REMARK   89  A    between atoms: _210  and  _212
REMARK   90  A    between atoms: _212  and  _213
REMARK   91  A    between atoms: _212  and  _215
REMARK   92  A    between atoms: _215  and  _216
REMARK   93  A    between atoms: _221  and  _223
REMARK   94  A    between atoms: _223  and  _224
REMARK   95  A    between atoms: _223  and  _226
REMARK   96  A    between atoms: _226  and  _227
REMARK   97  A    between atoms: _230  and  _232
REMARK   98  A    between atoms: _232  and  _233
REMARK   99  A    between atoms: _232  and  _235
REMARK  100  A    between atoms: _235  and  _236
REMARK  101  A    between atoms: _239  and  _241
REMARK  102  A    between atoms: _241  and  _242
REMARK  103  A    between atoms: _244  and  _246
REMARK  104  A    between atoms: _246  and  _247
REMARK  105  A    between atoms: _246  and  _249
REMARK  106  A    between atoms: _249  and  _250
REMARK  107  A    between atoms: _250  and  _251
REMARK  108  A    between atoms: _251  and  _252
REMARK  109  A    between atoms: _261  and  _263
REMARK  110  A    between atoms: _263  and  _264
REMARK  111  A    between atoms: _263  and  _266
REMARK  112  A    between atoms: _266  and  _267
REMARK  113  A    between atoms: _267  and  _268
REMARK  114  A    between atoms: _268  and  _269
REMARK  115  A    between atoms: _278  and  _280
REMARK  116  A    between atoms: _280  and  _281
REMARK  117  A    between atoms: _280  and  _283
REMARK  118  A    between atoms: _283  and  _284
REMARK  119  A    between atoms: _287  and  _289
REMARK  120  A    between atoms: _289  and  _290
REMARK  121  A    between atoms: _289  and  _292
REMARK  122  A    between atoms: _292  and  _293
REMARK  123  A    between atoms: _296  and  _298
REMARK  124  A    between atoms: _298  and  _299
REMARK  125  A    between atoms: _298  and  _301
REMARK  126  A    between atoms: _301  and  _302
REMARK  127  A    between atoms: _305  and  _307
REMARK  128  A    between atoms: _307  and  _308
REMARK  129  A    between atoms: _307  and  _310
REMARK  130  A    between atoms: _310  and  _311
REMARK  131  A    between atoms: _314  and  _316
REMARK  132  A    between atoms: _316  and  _317
REMARK  133  A    between atoms: _319  and  _321
REMARK  134  A    between atoms: _321  and  _322
REMARK  135  A    between atoms: _325  and  _327
REMARK  136  A    between atoms: _327  and  _328
REMARK  137  A    between atoms: _327  and  _330
REMARK  138  A    between atoms: _330  and  _331
REMARK  139  A    between atoms: _334  and  _336
REMARK  140  A    between atoms: _336  and  _337
REMARK  141  A    between atoms: _336  and  _339
REMARK  142  A    between atoms: _339  and  _340
REMARK  143  A    between atoms: _343  and  _345
REMARK  144  A    between atoms: _345  and  _346
REMARK  145  A    between atoms: _345  and  _348
REMARK  146  A    between atoms: _348  and  _349
REMARK  147  A    between atoms: _352  and  _354
REMARK  148  A    between atoms: _354  and  _355
REMARK  149  A    between atoms: _354  and  _357
REMARK  150  A    between atoms: _360  and  _362
REMARK  151  A    between atoms: _362  and  _363
REMARK  152  A    between atoms: _362  and  _365
REMARK  153  A    between atoms: _365  and  _366
REMARK  154  A    between atoms: _366  and  _367
REMARK  155  A    between atoms: _367  and  _368
REMARK  156  A    between atoms: _368  and  _369
REMARK  157  A    between atoms: _373  and  _375
REMARK  158  A    between atoms: _375  and  _376
REMARK  159  A    between atoms: _375  and  _378
REMARK  160  A    between atoms: _378  and  _379
REMARK  161  A    between atoms: _379  and  _380
REMARK  162  A    between atoms: _382  and  _384
REMARK  163  A    between atoms: _384  and  _385
REMARK  164  A    between atoms: _384  and  _387
REMARK  165  A    between atoms: _387  and  _388
REMARK  166  A    between atoms: _391  and  _393
REMARK  167  A    between atoms: _393  and  _394
REMARK  168  A    between atoms: _396  and  _398
REMARK  169  A    between atoms: _398  and  _399
REMARK  170  A    between atoms: _401  and  _403
REMARK  171  A    between atoms: _403  and  _404
REMARK  172  A    between atoms: _403  and  _406
REMARK  173  A    between atoms: _406  and  _407
REMARK  174  A    between atoms: _410  and  _412
REMARK  175  A    between atoms: _412  and  _413
REMARK  176  A    between atoms: _415  and  _417
REMARK  177  A    between atoms: _417  and  _418
REMARK  178  A    between atoms: _420  and  _422
REMARK  179  A    between atoms: _422  and  _423
REMARK  180  A    between atoms: _422  and  _425
REMARK  181  A    between atoms: _425  and  _426
REMARK  182  A    between atoms: _432  and  _434
REMARK  183  A    between atoms: _434  and  _435
REMARK  184  A    between atoms: _434  and  _437
REMARK  185  A    between atoms: _437  and  _438
REMARK  186  A    between atoms: _441  and  _443
REMARK  187  A    between atoms: _443  and  _444
REMARK  188  A    between atoms: _443  and  _446
REMARK  189  A    between atoms: _446  and  _447
REMARK  190  A    between atoms: _450  and  _452
REMARK  191  A    between atoms: _452  and  _453
REMARK  192  A    between atoms: _452  and  _455
REMARK  193  A    between atoms: _455  and  _456
REMARK  194  A    between atoms: _460  and  _461
REMARK  195  A    between atoms: _466  and  _468
REMARK  196  A    between atoms: _468  and  _469
REMARK  197  A    between atoms: _468  and  _471
REMARK  198  A    between atoms: _474  and  _476
REMARK  199  A    between atoms: _476  and  _477
REMARK  200  A    between atoms: _476  and  _479
REMARK  201  A    between atoms: _479  and  _480
REMARK  202  A    between atoms: _485  and  _487
REMARK  203  A    between atoms: _487  and  _488
REMARK  204  A    between atoms: _487  and  _490
REMARK  205  A    between atoms: _490  and  _491
REMARK  206  A    between atoms: _494  and  _496
REMARK  207  A    between atoms: _496  and  _497
REMARK  208  A    between atoms: _496  and  _499
REMARK  209  A    between atoms: _499  and  _500
REMARK  210  A    between atoms: _503  and  _505
REMARK  211  A    between atoms: _505  and  _506
REMARK  212  A    between atoms: _508  and  _510
REMARK  213  A    between atoms: _510  and  _511
REMARK  214  A    between atoms: _510  and  _513
REMARK  215  A    between atoms: _513  and  _514
REMARK  216  A    between atoms: _514  and  _515
REMARK  217  A    between atoms: _515  and  _516
REMARK  218  A    between atoms: _525  and  _527
REMARK  219  A    between atoms: _527  and  _528
REMARK  220  A    between atoms: _527  and  _530
REMARK  221  A    between atoms: _530  and  _531
REMARK                            x       y       z     vdW  Elec       q    Type
REMARK                         _______ _______ _______ _____ _____    ______ ____
ROOT
ATOM      1  O   HOH     1      21.052  25.750   7.428  0.00  0.00    +0.000 OA
ENDROOT
TORSDOF 0
REMARK  Name = ../refined-set-2016/2qi6/2qi6_pocket.pdb
REMARK  221 active torsions:
REMARK  status: ('A' for Active; 'I' for Inactive)
REMARK    1  A    between atoms: _1  and  _3
REMARK    2  A    between atoms: _3  and  _4
REMARK    3  A    between atoms: _3  and  _6
REMARK    4  A    between atoms: _6  and  _7
REMARK    5  A    between atoms: _7  and  _8
REMARK    6  A    between atoms: _8  and  _9
REMARK    7  A    between atoms: _18  and  _20
REMARK    8  A    between atoms: _20  and  _21
REMARK    9  A    between atoms: _20  and  _23
REMARK   10  A    between atoms: _23  and  _24
REMARK   11  A    between atoms: _27  and  _29
REMARK   12  A    between atoms: _29  and  _30
REMARK   13  A    between atoms: _29  and  _32
REMARK   14  A    between atoms: _32  and  _33
REMARK   15  A    between atoms: _36  and  _38
REMARK   16  A    between atoms: _38  and  _39
REMARK   17  A    between atoms: _38  and  _41
REMARK   18  A    between atoms: _41  and  _42
REMARK   19  A    between atoms: _45  and  _47
REMARK   20  A    between atoms: _47  and  _48
REMARK   21  A    between atoms: _47  and  _50
REMARK   22  A    between atoms: _50  and  _51
REMARK   23  A    between atoms: _54  and  _56
REMARK   24  A    between atoms: _56  and  _57
REMARK   25  A    between atoms: _59  and  _61
REMARK   26  A    between atoms: _61  and  _62
REMARK   27  A    between atoms: _65  and  _67
REMARK   28  A    between atoms: _67  and  _68
REMARK   29  A    between atoms: _67  and  _70
REMARK   30  A    between atoms: _70  and  _71
REMARK   31  A    between atoms: _74  and  _76
REMARK   32  A    between atoms: _76  and  _77
REMARK   33  A    between atoms: _76  and  _79
REMARK   34  A    between atoms: _79  and  _80
REMARK   35  A    between atoms: _83  and  _85
REMARK   36  A    between atoms: _85  and  _86
REMARK   37  A    between atoms: _85  and  _88
REMARK   38  A    between atoms: _88  and  _89
REMARK   39  A    between atoms: _92  and  _94
REMARK   40  A    between atoms: _94  and  _95
REMARK   41  A    between atoms: _94  and  _97
REMARK   42  A    between atoms: _100  and  _102
REMARK   43  A    between atoms: _102  and  _103
REMARK   44  A    between atoms: _102  and  _105
REMARK   45  A    between atoms: _105  and  _106
REMARK   46  A    between atoms: _106  and  _107
REMARK   47  A    between atoms: _107  and  _108
REMARK   48  A    between atoms: _108  and  _109
REMARK   49  A    between atoms: _113  and  _115
REMARK   50  A    between atoms: _115  and  _116
REMARK   51  A    between atoms: _115  and  _118
REMARK   52  A    between atoms: _118  and  _119
REMARK   53  A    between atoms: _119  and  _120
REMARK   54  A    between atoms: _122  and  _124
REMARK   55  A    between atoms: _124  and  _125
REMARK   56  A    between atoms: _124  and  _127
REMARK   57  A    between atoms: _127  and  _128
REMARK   58  A    between atoms: _131  and  _133
REMARK   59  A    between atoms: _133  and  _134
REMARK   60  A    between atoms: _136  and  _138
REMARK   61  A    between atoms: _138  and  _139
REMARK   62  A    between atoms: _141  and  _143
REMARK   63  A    between atoms: _143  and  _144
REMARK   64  A    between atoms: _143  and  _146
REMARK   65  A    between atoms: _146  and  _147
REMARK   66  A    between atoms: _150  and  _152
REMARK   67  A    between atoms: _152  and  _153
REMARK   68  A    between atoms: _155  and  _157
REMARK   69  A    between atoms: _157  and  _158
REMARK   70  A    between atoms: _160  and  _162
REMARK   71  A    between atoms: _162  and  _163
REMARK   72  A    between atoms: _162  and  _165
REMARK   73  A    between atoms: _165  and  _166
REMARK   74  A    between atoms: _169  and  _171
REMARK   75  A    between atoms: _171  and  _172
REMARK   76  A    between atoms: _171  and  _174
REMARK   77  A    between atoms: _177  and  _179
REMARK   78  A    between atoms: _179  and  _180
REMARK   79  A    between atoms: _179  and  _182
REMARK   80  A    between atoms: _182  and  _183
REMARK   81  A    between atoms: _186  and  _188
REMARK   82  A    between atoms: _188  and  _189
REMARK   83  A    between atoms: _188  and  _191
REMARK   84  A    between atoms: _191  and  _192
REMARK   85  A    between atoms: _196  and  _197
REMARK   86  A    between atoms: _202  and  _204
REMARK   87  A    between atoms: _204  and  _205
REMARK   88  A    between atoms: _204  and  _207
REMARK   89  A    between atoms: _210  and  _212
REMARK   90  A    between atoms: _212  and  _213
REMARK   91  A    between atoms: _212  and  _215
REMARK   92  A    between atoms: _215  and  _216
REMARK   93  A    between atoms: _221  and  _223
REMARK   94  A    between atoms: _223  and  _224
REMARK   95  A    between atoms: _223  and  _226
REMARK   96  A    between atoms: _226  and  _227
REMARK   97  A    between atoms: _230  and  _232
REMARK   98  A    between atoms: _232  and  _233
REMARK   99  A    between atoms: _232  and  _235
REMARK  100  A    between atoms: _235  and  _236
REMARK  101  A    between atoms: _239  and  _241
REMARK  102  A    between atoms: _241  and  _242
REMARK  103  A    between atoms: _244  and  _246
REMARK  104  A    between atoms: _246  and  _247
REMARK  105  A    between atoms: _246  and  _249
REMARK  106  A    between atoms: _249  and  _250
REMARK  107  A    between atoms: _250  and  _251
REMARK  108  A    between atoms: _251  and  _252
REMARK  109  A    between atoms: _261  and  _263
REMARK  110  A    between atoms: _263  and  _264
REMARK  111  A    between atoms: _263  and  _266
REMARK  112  A    between atoms: _266  and  _267
REMARK  113  A    between atoms: _267  and  _268
REMARK  114  A    between atoms: _268  and  _269
REMARK  115  A    between atoms: _278  and  _280
REMARK  116  A    between atoms: _280  and  _281
REMARK  117  A    between atoms: _280  and  _283
REMARK  118  A    between atoms: _283  and  _284
REMARK  119  A    between atoms: _287  and  _289
REMARK  120  A    between atoms: _289  and  _290
REMARK  121  A    between atoms: _289  and  _292
REMARK  122  A    between atoms: _292  and  _293
REMARK  123  A    between atoms: _296  and  _298
REMARK  124  A    between atoms: _298  and  _299
REMARK  125  A    between atoms: _298  and  _301
REMARK  126  A    between atoms: _301  and  _302
REMARK  127  A    between atoms: _305  and  _307
REMARK  128  A    between atoms: _307  and  _308
REMARK  129  A    between atoms: _307  and  _310
REMARK  130  A    between atoms: _310  and  _311
REMARK  131  A    between atoms: _314  and  _316
REMARK  132  A    between atoms: _316  and  _317
REMARK  133  A    between atoms: _319  and  _321
REMARK  134  A    between atoms: _321  and  _322
REMARK  135  A    between atoms: _325  and  _327
REMARK  136  A    between atoms: _327  and  _328
REMARK  137  A    between atoms: _327  and  _330
REMARK  138  A    between atoms: _330  and  _331
REMARK  139  A    between atoms: _334  and  _336
REMARK  140  A    between atoms: _336  and  _337
REMARK  141  A    between atoms: _336  and  _339
REMARK  142  A    between atoms: _339  and  _340
REMARK  143  A    between atoms: _343  and  _345
REMARK  144  A    between atoms: _345  and  _346
REMARK  145  A    between atoms: _345  and  _348
REMARK  146  A    between atoms: _348  and  _349
REMARK  147  A    between atoms: _352  and  _354
REMARK  148  A    between atoms: _354  and  _355
REMARK  149  A    between atoms: _354  and  _357
REMARK  150  A    between atoms: _360  and  _362
REMARK  151  A    between atoms: _362  and  _363
REMARK  152  A    between atoms: _362  and  _365
REMARK  153  A    between atoms: _365  and  _366
REMARK  154  A    between atoms: _366  and  _367
REMARK  155  A    between atoms: _367  and  _368
REMARK  156  A    between atoms: _368  and  _369
REMARK  157  A    between atoms: _373  and  _375
REMARK  158  A    between atoms: _375  and  _376
REMARK  159  A    between atoms: _375  and  _378
REMARK  160  A    between atoms: _378  and  _379
REMARK  161  A    between atoms: _379  and  _380
REMARK  162  A    between atoms: _382  and  _384
REMARK  163  A    between atoms: _384  and  _385
REMARK  164  A    between atoms: _384  and  _387
REMARK  165  A    between atoms: _387  and  _388
REMARK  166  A    between atoms: _391  and  _393
REMARK  167  A    between atoms: _393  and  _394
REMARK  168  A    between atoms: _396  and  _398
REMARK  169  A    between atoms: _398  and  _399
REMARK  170  A    between atoms: _401  and  _403
REMARK  171  A    between atoms: _403  and  _404
REMARK  172  A    between atoms: _403  and  _406
REMARK  173  A    between atoms: _406  and  _407
REMARK  174  A    between atoms: _410  and  _412
REMARK  175  A    between atoms: _412  and  _413
REMARK  176  A    between atoms: _415  and  _417
REMARK  177  A    between atoms: _417  and  _418
REMARK  178  A    between atoms: _420  and  _422
REMARK  179  A    between atoms: _422  and  _423
REMARK  180  A    between atoms: _422  and  _425
REMARK  181  A    between atoms: _425  and  _426
REMARK  182  A    between atoms: _432  and  _434
REMARK  183  A    between atoms: _434  and  _435
REMARK  184  A    between atoms: _434  and  _437
REMARK  185  A    between atoms: _437  and  _438
REMARK  186  A    between atoms: _441  and  _443
REMARK  187  A    between atoms: _443  and  _444
REMARK  188  A    between atoms: _443  and  _446
REMARK  189  A    between atoms: _446  and  _447
REMARK  190  A    between atoms: _450  and  _452
REMARK  191  A    between atoms: _452  and  _453
REMARK  192  A    between atoms: _452  and  _455
REMARK  193  A    between atoms: _455  and  _456
REMARK  194  A    between atoms: _460  and  _461
REMARK  195  A    between atoms: _466  and  _468
REMARK  196  A    between atoms: _468  and  _469
REMARK  197  A    between atoms: _468  and  _471
REMARK  198  A    between atoms: _474  and  _476
REMARK  199  A    between atoms: _476  and  _477
REMARK  200  A    between atoms: _476  and  _479
REMARK  201  A    between atoms: _479  and  _480
REMARK  202  A    between atoms: _485  and  _487
REMARK  203  A    between atoms: _487  and  _488
REMARK  204  A    between atoms: _487  and  _490
REMARK  205  A    between atoms: _490  and  _491
REMARK  206  A    between atoms: _494  and  _496
REMARK  207  A    between atoms: _496  and  _497
REMARK  208  A    between atoms: _496  and  _499
REMARK  209  A    between atoms: _499  and  _500
REMARK  210  A    between atoms: _503  and  _505
REMARK  211  A    between atoms: _505  and  _506
REMARK  212  A    between atoms: _508  and  _510
REMARK  213  A    between atoms: _510  and  _511
REMARK  214  A    between atoms: _510  and  _513
REMARK  215  A    between atoms: _513  and  _514
REMARK  216  A    between atoms: _514  and  _515
REMARK  217  A    between atoms: _515  and  _516
REMARK  218  A    between atoms: _525  and  _527
REMARK  219  A    between atoms: _527  and  _528
REMARK  220  A    between atoms: _527  and  _530
REMARK  221  A    between atoms: _530  and  _531
REMARK                            x       y       z     vdW  Elec       q    Type
REMARK                         _______ _______ _______ _____ _____    ______ ____
ROOT
ATOM      1  O   HOH     1      26.226  19.235  13.087  0.00  0.00    +0.000 OA
ENDROOT
TORSDOF 0
REMARK  Name = ../refined-set-2016/2qi6/2qi6_pocket.pdb
REMARK  221 active torsions:
REMARK  status: ('A' for Active; 'I' for Inactive)
REMARK    1  A    between atoms: _1  and  _3
REMARK    2  A    between atoms: _3  and  _4
REMARK    3  A    between atoms: _3  and  _6
REMARK    4  A    between atoms: _6  and  _7
REMARK    5  A    between atoms: _7  and  _8
REMARK    6  A    between atoms: _8  and  _9
REMARK    7  A    between atoms: _18  and  _20
REMARK    8  A    between atoms: _20  and  _21
REMARK    9  A    between atoms: _20  and  _23
REMARK   10  A    between atoms: _23  and  _24
REMARK   11  A    between atoms: _27  and  _29
REMARK   12  A    between atoms: _29  and  _30
REMARK   13  A    between atoms: _29  and  _32
REMARK   14  A    between atoms: _32  and  _33
REMARK   15  A    between atoms: _36  and  _38
REMARK   16  A    between atoms: _38  and  _39
REMARK   17  A    between atoms: _38  and  _41
REMARK   18  A    between atoms: _41  and  _42
REMARK   19  A    between atoms: _45  and  _47
REMARK   20  A    between atoms: _47  and  _48
REMARK   21  A    between atoms: _47  and  _50
REMARK   22  A    between atoms: _50  and  _51
REMARK   23  A    between atoms: _54  and  _56
REMARK   24  A    between atoms: _56  and  _57
REMARK   25  A    between atoms: _59  and  _61
REMARK   26  A    between atoms: _61  and  _62
REMARK   27  A    between atoms: _65  and  _67
REMARK   28  A    between atoms: _67  and  _68
REMARK   29  A    between atoms: _67  and  _70
REMARK   30  A    between atoms: _70  and  _71
REMARK   31  A    between atoms: _74  and  _76
REMARK   32  A    between atoms: _76  and  _77
REMARK   33  A    between atoms: _76  and  _79
REMARK   34  A    between atoms: _79  and  _80
REMARK   35  A    between atoms: _83  and  _85
REMARK   36  A    between atoms: _85  and  _86
REMARK   37  A    between atoms: _85  and  _88
REMARK   38  A    between atoms: _88  and  _89
REMARK   39  A    between atoms: _92  and  _94
REMARK   40  A    between atoms: _94  and  _95
REMARK   41  A    between atoms: _94  and  _97
REMARK   42  A    between atoms: _100  and  _102
REMARK   43  A    between atoms: _102  and  _103
REMARK   44  A    between atoms: _102  and  _105
REMARK   45  A    between atoms: _105  and  _106
REMARK   46  A    between atoms: _106  and  _107
REMARK   47  A    between atoms: _107  and  _108
REMARK   48  A    between atoms: _108  and  _109
REMARK   49  A    between atoms: _113  and  _115
REMARK   50  A    between atoms: _115  and  _116
REMARK   51  A    between atoms: _115  and  _118
REMARK   52  A    between atoms: _118  and  _119
REMARK   53  A    between atoms: _119  and  _120
REMARK   54  A    between atoms: _122  and  _124
REMARK   55  A    between atoms: _124  and  _125
REMARK   56  A    between atoms: _124  and  _127
REMARK   57  A    between atoms: _127  and  _128
REMARK   58  A    between atoms: _131  and  _133
REMARK   59  A    between atoms: _133  and  _134
REMARK   60  A    between atoms: _136  and  _138
REMARK   61  A    between atoms: _138  and  _139
REMARK   62  A    between atoms: _141  and  _143
REMARK   63  A    between atoms: _143  and  _144
REMARK   64  A    between atoms: _143  and  _146
REMARK   65  A    between atoms: _146  and  _147
REMARK   66  A    between atoms: _150  and  _152
REMARK   67  A    between atoms: _152  and  _153
REMARK   68  A    between atoms: _155  and  _157
REMARK   69  A    between atoms: _157  and  _158
REMARK   70  A    between atoms: _160  and  _162
REMARK   71  A    between atoms: _162  and  _163
REMARK   72  A    between atoms: _162  and  _165
REMARK   73  A    between atoms: _165  and  _166
REMARK   74  A    between atoms: _169  and  _171
REMARK   75  A    between atoms: _171  and  _172
REMARK   76  A    between atoms: _171  and  _174
REMARK   77  A    between atoms: _177  and  _179
REMARK   78  A    between atoms: _179  and  _180
REMARK   79  A    between atoms: _179  and  _182
REMARK   80  A    between atoms: _182  and  _183
REMARK   81  A    between atoms: _186  and  _188
REMARK   82  A    between atoms: _188  and  _189
REMARK   83  A    between atoms: _188  and  _191
REMARK   84  A    between atoms: _191  and  _192
REMARK   85  A    between atoms: _196  and  _197
REMARK   86  A    between atoms: _202  and  _204
REMARK   87  A    between atoms: _204  and  _205
REMARK   88  A    between atoms: _204  and  _207
REMARK   89  A    between atoms: _210  and  _212
REMARK   90  A    between atoms: _212  and  _213
REMARK   91  A    between atoms: _212  and  _215
REMARK   92  A    between atoms: _215  and  _216
REMARK   93  A    between atoms: _221  and  _223
REMARK   94  A    between atoms: _223  and  _224
REMARK   95  A    between atoms: _223  and  _226
REMARK   96  A    between atoms: _226  and  _227
REMARK   97  A    between atoms: _230  and  _232
REMARK   98  A    between atoms: _232  and  _233
REMARK   99  A    between atoms: _232  and  _235
REMARK  100  A    between atoms: _235  and  _236
REMARK  101  A    between atoms: _239  and  _241
REMARK  102  A    between atoms: _241  and  _242
REMARK  103  A    between atoms: _244  and  _246
REMARK  104  A    between atoms: _246  and  _247
REMARK  105  A    between atoms: _246  and  _249
REMARK  106  A    between atoms: _249  and  _250
REMARK  107  A    between atoms: _250  and  _251
REMARK  108  A    between atoms: _251  and  _252
REMARK  109  A    between atoms: _261  and  _263
REMARK  110  A    between atoms: _263  and  _264
REMARK  111  A    between atoms: _263  and  _266
REMARK  112  A    between atoms: _266  and  _267
REMARK  113  A    between atoms: _267  and  _268
REMARK  114  A    between atoms: _268  and  _269
REMARK  115  A    between atoms: _278  and  _280
REMARK  116  A    between atoms: _280  and  _281
REMARK  117  A    between atoms: _280  and  _283
REMARK  118  A    between atoms: _283  and  _284
REMARK  119  A    between atoms: _287  and  _289
REMARK  120  A    between atoms: _289  and  _290
REMARK  121  A    between atoms: _289  and  _292
REMARK  122  A    between atoms: _292  and  _293
REMARK  123  A    between atoms: _296  and  _298
REMARK  124  A    between atoms: _298  and  _299
REMARK  125  A    between atoms: _298  and  _301
REMARK  126  A    between atoms: _301  and  _302
REMARK  127  A    between atoms: _305  and  _307
REMARK  128  A    between atoms: _307  and  _308
REMARK  129  A    between atoms: _307  and  _310
REMARK  130  A    between atoms: _310  and  _311
REMARK  131  A    between atoms: _314  and  _316
REMARK  132  A    between atoms: _316  and  _317
REMARK  133  A    between atoms: _319  and  _321
REMARK  134  A    between atoms: _321  and  _322
REMARK  135  A    between atoms: _325  and  _327
REMARK  136  A    between atoms: _327  and  _328
REMARK  137  A    between atoms: _327  and  _330
REMARK  138  A    between atoms: _330  and  _331
REMARK  139  A    between atoms: _334  and  _336
REMARK  140  A    between atoms: _336  and  _337
REMARK  141  A    between atoms: _336  and  _339
REMARK  142  A    between atoms: _339  and  _340
REMARK  143  A    between atoms: _343  and  _345
REMARK  144  A    between atoms: _345  and  _346
REMARK  145  A    between atoms: _345  and  _348
REMARK  146  A    between atoms: _348  and  _349
REMARK  147  A    between atoms: _352  and  _354
REMARK  148  A    between atoms: _354  and  _355
REMARK  149  A    between atoms: _354  and  _357
REMARK  150  A    between atoms: _360  and  _362
REMARK  151  A    between atoms: _362  and  _363
REMARK  152  A    between atoms: _362  and  _365
REMARK  153  A    between atoms: _365  and  _366
REMARK  154  A    between atoms: _366  and  _367
REMARK  155  A    between atoms: _367  and  _368
REMARK  156  A    between atoms: _368  and  _369
REMARK  157  A    between atoms: _373  and  _375
REMARK  158  A    between atoms: _375  and  _376
REMARK  159  A    between atoms: _375  and  _378
REMARK  160  A    between atoms: _378  and  _379
REMARK  161  A    between atoms: _379  and  _380
REMARK  162  A    between atoms: _382  and  _384
REMARK  163  A    between atoms: _384  and  _385
REMARK  164  A    between atoms: _384  and  _387
REMARK  165  A    between atoms: _387  and  _388
REMARK  166  A    between atoms: _391  and  _393
REMARK  167  A    between atoms: _393  and  _394
REMARK  168  A    between atoms: _396  and  _398
REMARK  169  A    between atoms: _398  and  _399
REMARK  170  A    between atoms: _401  and  _403
REMARK  171  A    between atoms: _403  and  _404
REMARK  172  A    between atoms: _403  and  _406
REMARK  173  A    between atoms: _406  and  _407
REMARK  174  A    between atoms: _410  and  _412
REMARK  175  A    between atoms: _412  and  _413
REMARK  176  A    between atoms: _415  and  _417
REMARK  177  A    between atoms: _417  and  _418
REMARK  178  A    between atoms: _420  and  _422
REMARK  179  A    between atoms: _422  and  _423
REMARK  180  A    between atoms: _422  and  _425
REMARK  181  A    between atoms: _425  and  _426
REMARK  182  A    between atoms: _432  and  _434
REMARK  183  A    between atoms: _434  and  _435
REMARK  184  A    between atoms: _434  and  _437
REMARK  185  A    between atoms: _437  and  _438
REMARK  186  A    between atoms: _441  and  _443
REMARK  187  A    between atoms: _443  and  _444
REMARK  188  A    between atoms: _443  and  _446
REMARK  189  A    between atoms: _446  and  _447
REMARK  190  A    between atoms: _450  and  _452
REMARK  191  A    between atoms: _452  and  _453
REMARK  192  A    between atoms: _452  and  _455
REMARK  193  A    between atoms: _455  and  _456
REMARK  194  A    between atoms: _460  and  _461
REMARK  195  A    between atoms: _466  and  _468
REMARK  196  A    between atoms: _468  and  _469
REMARK  197  A    between atoms: _468  and  _471
REMARK  198  A    between atoms: _474  and  _476
REMARK  199  A    between atoms: _476  and  _477
REMARK  200  A    between atoms: _476  and  _479
REMARK  201  A    between atoms: _479  and  _480
REMARK  202  A    between atoms: _485  and  _487
REMARK  203  A    between atoms: _487  and  _488
REMARK  204  A    between atoms: _487  and  _490
REMARK  205  A    between atoms: _490  and  _491
REMARK  206  A    between atoms: _494  and  _496
REMARK  207  A    between atoms: _496  and  _497
REMARK  208  A    between atoms: _496  and  _499
REMARK  209  A    between atoms: _499  and  _500
REMARK  210  A    between atoms: _503  and  _505
REMARK  211  A    between atoms: _505  and  _506
REMARK  212  A    between atoms: _508  and  _510
REMARK  213  A    between atoms: _510  and  _511
REMARK  214  A    between atoms: _510  and  _513
REMARK  215  A    between atoms: _513  and  _514
REMARK  216  A    between atoms: _514  and  _515
REMARK  217  A    between atoms: _515  and  _516
REMARK  218  A    between atoms: _525  and  _527
REMARK  219  A    between atoms: _527  and  _528
REMARK  220  A    between atoms: _527  and  _530
REMARK  221  A    between atoms: _530  and  _531
REMARK                            x       y       z     vdW  Elec       q    Type
REMARK                         _______ _______ _______ _____ _____    ______ ____
ROOT
ATOM      1  O   HOH     1      23.595  25.626   6.021  0.00  0.00    +0.000 OA
ENDROOT
TORSDOF 0
REMARK  Name = ../refined-set-2016/2qi6/2qi6_pocket.pdb
REMARK  221 active torsions:
REMARK  status: ('A' for Active; 'I' for Inactive)
REMARK    1  A    between atoms: _1  and  _3
REMARK    2  A    between atoms: _3  and  _4
REMARK    3  A    between atoms: _3  and  _6
REMARK    4  A    between atoms: _6  and  _7
REMARK    5  A    between atoms: _7  and  _8
REMARK    6  A    between atoms: _8  and  _9
REMARK    7  A    between atoms: _18  and  _20
REMARK    8  A    between atoms: _20  and  _21
REMARK    9  A    between atoms: _20  and  _23
REMARK   10  A    between atoms: _23  and  _24
REMARK   11  A    between atoms: _27  and  _29
REMARK   12  A    between atoms: _29  and  _30
REMARK   13  A    between atoms: _29  and  _32
REMARK   14  A    between atoms: _32  and  _33
REMARK   15  A    between atoms: _36  and  _38
REMARK   16  A    between atoms: _38  and  _39
REMARK   17  A    between atoms: _38  and  _41
REMARK   18  A    between atoms: _41  and  _42
REMARK   19  A    between atoms: _45  and  _47
REMARK   20  A    between atoms: _47  and  _48
REMARK   21  A    between atoms: _47  and  _50
REMARK   22  A    between atoms: _50  and  _51
REMARK   23  A    between atoms: _54  and  _56
REMARK   24  A    between atoms: _56  and  _57
REMARK   25  A    between atoms: _59  and  _61
REMARK   26  A    between atoms: _61  and  _62
REMARK   27  A    between atoms: _65  and  _67
REMARK   28  A    between atoms: _67  and  _68
REMARK   29  A    between atoms: _67  and  _70
REMARK   30  A    between atoms: _70  and  _71
REMARK   31  A    between atoms: _74  and  _76
REMARK   32  A    between atoms: _76  and  _77
REMARK   33  A    between atoms: _76  and  _79
REMARK   34  A    between atoms: _79  and  _80
REMARK   35  A    between atoms: _83  and  _85
REMARK   36  A    between atoms: _85  and  _86
REMARK   37  A    between atoms: _85  and  _88
REMARK   38  A    between atoms: _88  and  _89
REMARK   39  A    between atoms: _92  and  _94
REMARK   40  A    between atoms: _94  and  _95
REMARK   41  A    between atoms: _94  and  _97
REMARK   42  A    between atoms: _100  and  _102
REMARK   43  A    between atoms: _102  and  _103
REMARK   44  A    between atoms: _102  and  _105
REMARK   45  A    between atoms: _105  and  _106
REMARK   46  A    between atoms: _106  and  _107
REMARK   47  A    between atoms: _107  and  _108
REMARK   48  A    between atoms: _108  and  _109
REMARK   49  A    between atoms: _113  and  _115
REMARK   50  A    between atoms: _115  and  _116
REMARK   51  A    between atoms: _115  and  _118
REMARK   52  A    between atoms: _118  and  _119
REMARK   53  A    between atoms: _119  and  _120
REMARK   54  A    between atoms: _122  and  _124
REMARK   55  A    between atoms: _124  and  _125
REMARK   56  A    between atoms: _124  and  _127
REMARK   57  A    between atoms: _127  and  _128
REMARK   58  A    between atoms: _131  and  _133
REMARK   59  A    between atoms: _133  and  _134
REMARK   60  A    between atoms: _136  and  _138
REMARK   61  A    between atoms: _138  and  _139
REMARK   62  A    between atoms: _141  and  _143
REMARK   63  A    between atoms: _143  and  _144
REMARK   64  A    between atoms: _143  and  _146
REMARK   65  A    between atoms: _146  and  _147
REMARK   66  A    between atoms: _150  and  _152
REMARK   67  A    between atoms: _152  and  _153
REMARK   68  A    between atoms: _155  and  _157
REMARK   69  A    between atoms: _157  and  _158
REMARK   70  A    between atoms: _160  and  _162
REMARK   71  A    between atoms: _162  and  _163
REMARK   72  A    between atoms: _162  and  _165
REMARK   73  A    between atoms: _165  and  _166
REMARK   74  A    between atoms: _169  and  _171
REMARK   75  A    between atoms: _171  and  _172
REMARK   76  A    between atoms: _171  and  _174
REMARK   77  A    between atoms: _177  and  _179
REMARK   78  A    between atoms: _179  and  _180
REMARK   79  A    between atoms: _179  and  _182
REMARK   80  A    between atoms: _182  and  _183
REMARK   81  A    between atoms: _186  and  _188
REMARK   82  A    between atoms: _188  and  _189
REMARK   83  A    between atoms: _188  and  _191
REMARK   84  A    between atoms: _191  and  _192
REMARK   85  A    between atoms: _196  and  _197
REMARK   86  A    between atoms: _202  and  _204
REMARK   87  A    between atoms: _204  and  _205
REMARK   88  A    between atoms: _204  and  _207
REMARK   89  A    between atoms: _210  and  _212
REMARK   90  A    between atoms: _212  and  _213
REMARK   91  A    between atoms: _212  and  _215
REMARK   92  A    between atoms: _215  and  _216
REMARK   93  A    between atoms: _221  and  _223
REMARK   94  A    between atoms: _223  and  _224
REMARK   95  A    between atoms: _223  and  _226
REMARK   96  A    between atoms: _226  and  _227
REMARK   97  A    between atoms: _230  and  _232
REMARK   98  A    between atoms: _232  and  _233
REMARK   99  A    between atoms: _232  and  _235
REMARK  100  A    between atoms: _235  and  _236
REMARK  101  A    between atoms: _239  and  _241
REMARK  102  A    between atoms: _241  and  _242
REMARK  103  A    between atoms: _244  and  _246
REMARK  104  A    between atoms: _246  and  _247
REMARK  105  A    between atoms: _246  and  _249
REMARK  106  A    between atoms: _249  and  _250
REMARK  107  A    between atoms: _250  and  _251
REMARK  108  A    between atoms: _251  and  _252
REMARK  109  A    between atoms: _261  and  _263
REMARK  110  A    between atoms: _263  and  _264
REMARK  111  A    between atoms: _263  and  _266
REMARK  112  A    between atoms: _266  and  _267
REMARK  113  A    between atoms: _267  and  _268
REMARK  114  A    between atoms: _268  and  _269
REMARK  115  A    between atoms: _278  and  _280
REMARK  116  A    between atoms: _280  and  _281
REMARK  117  A    between atoms: _280  and  _283
REMARK  118  A    between atoms: _283  and  _284
REMARK  119  A    between atoms: _287  and  _289
REMARK  120  A    between atoms: _289  and  _290
REMARK  121  A    between atoms: _289  and  _292
REMARK  122  A    between atoms: _292  and  _293
REMARK  123  A    between atoms: _296  and  _298
REMARK  124  A    between atoms: _298  and  _299
REMARK  125  A    between atoms: _298  and  _301
REMARK  126  A    between atoms: _301  and  _302
REMARK  127  A    between atoms: _305  and  _307
REMARK  128  A    between atoms: _307  and  _308
REMARK  129  A    between atoms: _307  and  _310
REMARK  130  A    between atoms: _310  and  _311
REMARK  131  A    between atoms: _314  and  _316
REMARK  132  A    between atoms: _316  and  _317
REMARK  133  A    between atoms: _319  and  _321
REMARK  134  A    between atoms: _321  and  _322
REMARK  135  A    between atoms: _325  and  _327
REMARK  136  A    between atoms: _327  and  _328
REMARK  137  A    between atoms: _327  and  _330
REMARK  138  A    between atoms: _330  and  _331
REMARK  139  A    between atoms: _334  and  _336
REMARK  140  A    between atoms: _336  and  _337
REMARK  141  A    between atoms: _336  and  _339
REMARK  142  A    between atoms: _339  and  _340
REMARK  143  A    between atoms: _343  and  _345
REMARK  144  A    between atoms: _345  and  _346
REMARK  145  A    between atoms: _345  and  _348
REMARK  146  A    between atoms: _348  and  _349
REMARK  147  A    between atoms: _352  and  _354
REMARK  148  A    between atoms: _354  and  _355
REMARK  149  A    between atoms: _354  and  _357
REMARK  150  A    between atoms: _360  and  _362
REMARK  151  A    between atoms: _362  and  _363
REMARK  152  A    between atoms: _362  and  _365
REMARK  153  A    between atoms: _365  and  _366
REMARK  154  A    between atoms: _366  and  _367
REMARK  155  A    between atoms: _367  and  _368
REMARK  156  A    between atoms: _368  and  _369
REMARK  157  A    between atoms: _373  and  _375
REMARK  158  A    between atoms: _375  and  _376
REMARK  159  A    between atoms: _375  and  _378
REMARK  160  A    between atoms: _378  and  _379
REMARK  161  A    between atoms: _379  and  _380
REMARK  162  A    between atoms: _382  and  _384
REMARK  163  A    between atoms: _384  and  _385
REMARK  164  A    between atoms: _384  and  _387
REMARK  165  A    between atoms: _387  and  _388
REMARK  166  A    between atoms: _391  and  _393
REMARK  167  A    between atoms: _393  and  _394
REMARK  168  A    between atoms: _396  and  _398
REMARK  169  A    between atoms: _398  and  _399
REMARK  170  A    between atoms: _401  and  _403
REMARK  171  A    between atoms: _403  and  _404
REMARK  172  A    between atoms: _403  and  _406
REMARK  173  A    between atoms: _406  and  _407
REMARK  174  A    between atoms: _410  and  _412
REMARK  175  A    between atoms: _412  and  _413
REMARK  176  A    between atoms: _415  and  _417
REMARK  177  A    between atoms: _417  and  _418
REMARK  178  A    between atoms: _420  and  _422
REMARK  179  A    between atoms: _422  and  _423
REMARK  180  A    between atoms: _422  and  _425
REMARK  181  A    between atoms: _425  and  _426
REMARK  182  A    between atoms: _432  and  _434
REMARK  183  A    between atoms: _434  and  _435
REMARK  184  A    between atoms: _434  and  _437
REMARK  185  A    between atoms: _437  and  _438
REMARK  186  A    between atoms: _441  and  _443
REMARK  187  A    between atoms: _443  and  _444
REMARK  188  A    between atoms: _443  and  _446
REMARK  189  A    between atoms: _446  and  _447
REMARK  190  A    between atoms: _450  and  _452
REMARK  191  A    between atoms: _452  and  _453
REMARK  192  A    between atoms: _452  and  _455
REMARK  193  A    between atoms: _455  and  _456
REMARK  194  A    between atoms: _460  and  _461
REMARK  195  A    between atoms: _466  and  _468
REMARK  196  A    between atoms: _468  and  _469
REMARK  197  A    between atoms: _468  and  _471
REMARK  198  A    between atoms: _474  and  _476
REMARK  199  A    between atoms: _476  and  _477
REMARK  200  A    between atoms: _476  and  _479
REMARK  201  A    between atoms: _479  and  _480
REMARK  202  A    between atoms: _485  and  _487
REMARK  203  A    between atoms: _487  and  _488
REMARK  204  A    between atoms: _487  and  _490
REMARK  205  A    between atoms: _490  and  _491
REMARK  206  A    between atoms: _494  and  _496
REMARK  207  A    between atoms: _496  and  _497
REMARK  208  A    between atoms: _496  and  _499
REMARK  209  A    between atoms: _499  and  _500
REMARK  210  A    between atoms: _503  and  _505
REMARK  211  A    between atoms: _505  and  _506
REMARK  212  A    between atoms: _508  and  _510
REMARK  213  A    between atoms: _510  and  _511
REMARK  214  A    between atoms: _510  and  _513
REMARK  215  A    between atoms: _513  and  _514
REMARK  216  A    between atoms: _514  and  _515
REMARK  217  A    between atoms: _515  and  _516
REMARK  218  A    between atoms: _525  and  _527
REMARK  219  A    between atoms: _527  and  _528
REMARK  220  A    between atoms: _527  and  _530
REMARK  221  A    between atoms: _530  and  _531
REMARK                            x       y       z     vdW  Elec       q    Type
REMARK                         _______ _______ _______ _____ _____    ______ ____
ROOT
ATOM      1  O   HOH     1      24.705  40.482  17.054  0.00  0.00    +0.000 OA
ENDROOT
TORSDOF 0
REMARK  Name = ../refined-set-2016/2qi6/2qi6_pocket.pdb
REMARK  221 active torsions:
REMARK  status: ('A' for Active; 'I' for Inactive)
REMARK    1  A    between atoms: _1  and  _3
REMARK    2  A    between atoms: _3  and  _4
REMARK    3  A    between atoms: _3  and  _6
REMARK    4  A    between atoms: _6  and  _7
REMARK    5  A    between atoms: _7  and  _8
REMARK    6  A    between atoms: _8  and  _9
REMARK    7  A    between atoms: _18  and  _20
REMARK    8  A    between atoms: _20  and  _21
REMARK    9  A    between atoms: _20  and  _23
REMARK   10  A    between atoms: _23  and  _24
REMARK   11  A    between atoms: _27  and  _29
REMARK   12  A    between atoms: _29  and  _30
REMARK   13  A    between atoms: _29  and  _32
REMARK   14  A    between atoms: _32  and  _33
REMARK   15  A    between atoms: _36  and  _38
REMARK   16  A    between atoms: _38  and  _39
REMARK   17  A    between atoms: _38  and  _41
REMARK   18  A    between atoms: _41  and  _42
REMARK   19  A    between atoms: _45  and  _47
REMARK   20  A    between atoms: _47  and  _48
REMARK   21  A    between atoms: _47  and  _50
REMARK   22  A    between atoms: _50  and  _51
REMARK   23  A    between atoms: _54  and  _56
REMARK   24  A    between atoms: _56  and  _57
REMARK   25  A    between atoms: _59  and  _61
REMARK   26  A    between atoms: _61  and  _62
REMARK   27  A    between atoms: _65  and  _67
REMARK   28  A    between atoms: _67  and  _68
REMARK   29  A    between atoms: _67  and  _70
REMARK   30  A    between atoms: _70  and  _71
REMARK   31  A    between atoms: _74  and  _76
REMARK   32  A    between atoms: _76  and  _77
REMARK   33  A    between atoms: _76  and  _79
REMARK   34  A    between atoms: _79  and  _80
REMARK   35  A    between atoms: _83  and  _85
REMARK   36  A    between atoms: _85  and  _86
REMARK   37  A    between atoms: _85  and  _88
REMARK   38  A    between atoms: _88  and  _89
REMARK   39  A    between atoms: _92  and  _94
REMARK   40  A    between atoms: _94  and  _95
REMARK   41  A    between atoms: _94  and  _97
REMARK   42  A    between atoms: _100  and  _102
REMARK   43  A    between atoms: _102  and  _103
REMARK   44  A    between atoms: _102  and  _105
REMARK   45  A    between atoms: _105  and  _106
REMARK   46  A    between atoms: _106  and  _107
REMARK   47  A    between atoms: _107  and  _108
REMARK   48  A    between atoms: _108  and  _109
REMARK   49  A    between atoms: _113  and  _115
REMARK   50  A    between atoms: _115  and  _116
REMARK   51  A    between atoms: _115  and  _118
REMARK   52  A    between atoms: _118  and  _119
REMARK   53  A    between atoms: _119  and  _120
REMARK   54  A    between atoms: _122  and  _124
REMARK   55  A    between atoms: _124  and  _125
REMARK   56  A    between atoms: _124  and  _127
REMARK   57  A    between atoms: _127  and  _128
REMARK   58  A    between atoms: _131  and  _133
REMARK   59  A    between atoms: _133  and  _134
REMARK   60  A    between atoms: _136  and  _138
REMARK   61  A    between atoms: _138  and  _139
REMARK   62  A    between atoms: _141  and  _143
REMARK   63  A    between atoms: _143  and  _144
REMARK   64  A    between atoms: _143  and  _146
REMARK   65  A    between atoms: _146  and  _147
REMARK   66  A    between atoms: _150  and  _152
REMARK   67  A    between atoms: _152  and  _153
REMARK   68  A    between atoms: _155  and  _157
REMARK   69  A    between atoms: _157  and  _158
REMARK   70  A    between atoms: _160  and  _162
REMARK   71  A    between atoms: _162  and  _163
REMARK   72  A    between atoms: _162  and  _165
REMARK   73  A    between atoms: _165  and  _166
REMARK   74  A    between atoms: _169  and  _171
REMARK   75  A    between atoms: _171  and  _172
REMARK   76  A    between atoms: _171  and  _174
REMARK   77  A    between atoms: _177  and  _179
REMARK   78  A    between atoms: _179  and  _180
REMARK   79  A    between atoms: _179  and  _182
REMARK   80  A    between atoms: _182  and  _183
REMARK   81  A    between atoms: _186  and  _188
REMARK   82  A    between atoms: _188  and  _189
REMARK   83  A    between atoms: _188  and  _191
REMARK   84  A    between atoms: _191  and  _192
REMARK   85  A    between atoms: _196  and  _197
REMARK   86  A    between atoms: _202  and  _204
REMARK   87  A    between atoms: _204  and  _205
REMARK   88  A    between atoms: _204  and  _207
REMARK   89  A    between atoms: _210  and  _212
REMARK   90  A    between atoms: _212  and  _213
REMARK   91  A    between atoms: _212  and  _215
REMARK   92  A    between atoms: _215  and  _216
REMARK   93  A    between atoms: _221  and  _223
REMARK   94  A    between atoms: _223  and  _224
REMARK   95  A    between atoms: _223  and  _226
REMARK   96  A    between atoms: _226  and  _227
REMARK   97  A    between atoms: _230  and  _232
REMARK   98  A    between atoms: _232  and  _233
REMARK   99  A    between atoms: _232  and  _235
REMARK  100  A    between atoms: _235  and  _236
REMARK  101  A    between atoms: _239  and  _241
REMARK  102  A    between atoms: _241  and  _242
REMARK  103  A    between atoms: _244  and  _246
REMARK  104  A    between atoms: _246  and  _247
REMARK  105  A    between atoms: _246  and  _249
REMARK  106  A    between atoms: _249  and  _250
REMARK  107  A    between atoms: _250  and  _251
REMARK  108  A    between atoms: _251  and  _252
REMARK  109  A    between atoms: _261  and  _263
REMARK  110  A    between atoms: _263  and  _264
REMARK  111  A    between atoms: _263  and  _266
REMARK  112  A    between atoms: _266  and  _267
REMARK  113  A    between atoms: _267  and  _268
REMARK  114  A    between atoms: _268  and  _269
REMARK  115  A    between atoms: _278  and  _280
REMARK  116  A    between atoms: _280  and  _281
REMARK  117  A    between atoms: _280  and  _283
REMARK  118  A    between atoms: _283  and  _284
REMARK  119  A    between atoms: _287  and  _289
REMARK  120  A    between atoms: _289  and  _290
REMARK  121  A    between atoms: _289  and  _292
REMARK  122  A    between atoms: _292  and  _293
REMARK  123  A    between atoms: _296  and  _298
REMARK  124  A    between atoms: _298  and  _299
REMARK  125  A    between atoms: _298  and  _301
REMARK  126  A    between atoms: _301  and  _302
REMARK  127  A    between atoms: _305  and  _307
REMARK  128  A    between atoms: _307  and  _308
REMARK  129  A    between atoms: _307  and  _310
REMARK  130  A    between atoms: _310  and  _311
REMARK  131  A    between atoms: _314  and  _316
REMARK  132  A    between atoms: _316  and  _317
REMARK  133  A    between atoms: _319  and  _321
REMARK  134  A    between atoms: _321  and  _322
REMARK  135  A    between atoms: _325  and  _327
REMARK  136  A    between atoms: _327  and  _328
REMARK  137  A    between atoms: _327  and  _330
REMARK  138  A    between atoms: _330  and  _331
REMARK  139  A    between atoms: _334  and  _336
REMARK  140  A    between atoms: _336  and  _337
REMARK  141  A    between atoms: _336  and  _339
REMARK  142  A    between atoms: _339  and  _340
REMARK  143  A    between atoms: _343  and  _345
REMARK  144  A    between atoms: _345  and  _346
REMARK  145  A    between atoms: _345  and  _348
REMARK  146  A    between atoms: _348  and  _349
REMARK  147  A    between atoms: _352  and  _354
REMARK  148  A    between atoms: _354  and  _355
REMARK  149  A    between atoms: _354  and  _357
REMARK  150  A    between atoms: _360  and  _362
REMARK  151  A    between atoms: _362  and  _363
REMARK  152  A    between atoms: _362  and  _365
REMARK  153  A    between atoms: _365  and  _366
REMARK  154  A    between atoms: _366  and  _367
REMARK  155  A    between atoms: _367  and  _368
REMARK  156  A    between atoms: _368  and  _369
REMARK  157  A    between atoms: _373  and  _375
REMARK  158  A    between atoms: _375  and  _376
REMARK  159  A    between atoms: _375  and  _378
REMARK  160  A    between atoms: _378  and  _379
REMARK  161  A    between atoms: _379  and  _380
REMARK  162  A    between atoms: _382  and  _384
REMARK  163  A    between atoms: _384  and  _385
REMARK  164  A    between atoms: _384  and  _387
REMARK  165  A    between atoms: _387  and  _388
REMARK  166  A    between atoms: _391  and  _393
REMARK  167  A    between atoms: _393  and  _394
REMARK  168  A    between atoms: _396  and  _398
REMARK  169  A    between atoms: _398  and  _399
REMARK  170  A    between atoms: _401  and  _403
REMARK  171  A    between atoms: _403  and  _404
REMARK  172  A    between atoms: _403  and  _406
REMARK  173  A    between atoms: _406  and  _407
REMARK  174  A    between atoms: _410  and  _412
REMARK  175  A    between atoms: _412  and  _413
REMARK  176  A    between atoms: _415  and  _417
REMARK  177  A    between atoms: _417  and  _418
REMARK  178  A    between atoms: _420  and  _422
REMARK  179  A    between atoms: _422  and  _423
REMARK  180  A    between atoms: _422  and  _425
REMARK  181  A    between atoms: _425  and  _426
REMARK  182  A    between atoms: _432  and  _434
REMARK  183  A    between atoms: _434  and  _435
REMARK  184  A    between atoms: _434  and  _437
REMARK  185  A    between atoms: _437  and  _438
REMARK  186  A    between atoms: _441  and  _443
REMARK  187  A    between atoms: _443  and  _444
REMARK  188  A    between atoms: _443  and  _446
REMARK  189  A    between atoms: _446  and  _447
REMARK  190  A    between atoms: _450  and  _452
REMARK  191  A    between atoms: _452  and  _453
REMARK  192  A    between atoms: _452  and  _455
REMARK  193  A    between atoms: _455  and  _456
REMARK  194  A    between atoms: _460  and  _461
REMARK  195  A    between atoms: _466  and  _468
REMARK  196  A    between atoms: _468  and  _469
REMARK  197  A    between atoms: _468  and  _471
REMARK  198  A    between atoms: _474  and  _476
REMARK  199  A    between atoms: _476  and  _477
REMARK  200  A    between atoms: _476  and  _479
REMARK  201  A    between atoms: _479  and  _480
REMARK  202  A    between atoms: _485  and  _487
REMARK  203  A    between atoms: _487  and  _488
REMARK  204  A    between atoms: _487  and  _490
REMARK  205  A    between atoms: _490  and  _491
REMARK  206  A    between atoms: _494  and  _496
REMARK  207  A    between atoms: _496  and  _497
REMARK  208  A    between atoms: _496  and  _499
REMARK  209  A    between atoms: _499  and  _500
REMARK  210  A    between atoms: _503  and  _505
REMARK  211  A    between atoms: _505  and  _506
REMARK  212  A    between atoms: _508  and  _510
REMARK  213  A    between atoms: _510  and  _511
REMARK  214  A    between atoms: _510  and  _513
REMARK  215  A    between atoms: _513  and  _514
REMARK  216  A    between atoms: _514  and  _515
REMARK  217  A    between atoms: _515  and  _516
REMARK  218  A    between atoms: _525  and  _527
REMARK  219  A    between atoms: _527  and  _528
REMARK  220  A    between atoms: _527  and  _530
REMARK  221  A    between atoms: _530  and  _531
REMARK                            x       y       z     vdW  Elec       q    Type
REMARK                         _______ _______ _______ _____ _____    ______ ____
ROOT
ATOM      1  O   HOH     1      30.438  22.119  10.643  0.00  0.00    +0.000 OA
ENDROOT
TORSDOF 0
REMARK  Name = ../refined-set-2016/2qi6/2qi6_pocket.pdb
REMARK  221 active torsions:
REMARK  status: ('A' for Active; 'I' for Inactive)
REMARK    1  A    between atoms: _1  and  _3
REMARK    2  A    between atoms: _3  and  _4
REMARK    3  A    between atoms: _3  and  _6
REMARK    4  A    between atoms: _6  and  _7
REMARK    5  A    between atoms: _7  and  _8
REMARK    6  A    between atoms: _8  and  _9
REMARK    7  A    between atoms: _18  and  _20
REMARK    8  A    between atoms: _20  and  _21
REMARK    9  A    between atoms: _20  and  _23
REMARK   10  A    between atoms: _23  and  _24
REMARK   11  A    between atoms: _27  and  _29
REMARK   12  A    between atoms: _29  and  _30
REMARK   13  A    between atoms: _29  and  _32
REMARK   14  A    between atoms: _32  and  _33
REMARK   15  A    between atoms: _36  and  _38
REMARK   16  A    between atoms: _38  and  _39
REMARK   17  A    between atoms: _38  and  _41
REMARK   18  A    between atoms: _41  and  _42
REMARK   19  A    between atoms: _45  and  _47
REMARK   20  A    between atoms: _47  and  _48
REMARK   21  A    between atoms: _47  and  _50
REMARK   22  A    between atoms: _50  and  _51
REMARK   23  A    between atoms: _54  and  _56
REMARK   24  A    between atoms: _56  and  _57
REMARK   25  A    between atoms: _59  and  _61
REMARK   26  A    between atoms: _61  and  _62
REMARK   27  A    between atoms: _65  and  _67
REMARK   28  A    between atoms: _67  and  _68
REMARK   29  A    between atoms: _67  and  _70
REMARK   30  A    between atoms: _70  and  _71
REMARK   31  A    between atoms: _74  and  _76
REMARK   32  A    between atoms: _76  and  _77
REMARK   33  A    between atoms: _76  and  _79
REMARK   34  A    between atoms: _79  and  _80
REMARK   35  A    between atoms: _83  and  _85
REMARK   36  A    between atoms: _85  and  _86
REMARK   37  A    between atoms: _85  and  _88
REMARK   38  A    between atoms: _88  and  _89
REMARK   39  A    between atoms: _92  and  _94
REMARK   40  A    between atoms: _94  and  _95
REMARK   41  A    between atoms: _94  and  _97
REMARK   42  A    between atoms: _100  and  _102
REMARK   43  A    between atoms: _102  and  _103
REMARK   44  A    between atoms: _102  and  _105
REMARK   45  A    between atoms: _105  and  _106
REMARK   46  A    between atoms: _106  and  _107
REMARK   47  A    between atoms: _107  and  _108
REMARK   48  A    between atoms: _108  and  _109
REMARK   49  A    between atoms: _113  and  _115
REMARK   50  A    between atoms: _115  and  _116
REMARK   51  A    between atoms: _115  and  _118
REMARK   52  A    between atoms: _118  and  _119
REMARK   53  A    between atoms: _119  and  _120
REMARK   54  A    between atoms: _122  and  _124
REMARK   55  A    between atoms: _124  and  _125
REMARK   56  A    between atoms: _124  and  _127
REMARK   57  A    between atoms: _127  and  _128
REMARK   58  A    between atoms: _131  and  _133
REMARK   59  A    between atoms: _133  and  _134
REMARK   60  A    between atoms: _136  and  _138
REMARK   61  A    between atoms: _138  and  _139
REMARK   62  A    between atoms: _141  and  _143
REMARK   63  A    between atoms: _143  and  _144
REMARK   64  A    between atoms: _143  and  _146
REMARK   65  A    between atoms: _146  and  _147
REMARK   66  A    between atoms: _150  and  _152
REMARK   67  A    between atoms: _152  and  _153
REMARK   68  A    between atoms: _155  and  _157
REMARK   69  A    between atoms: _157  and  _158
REMARK   70  A    between atoms: _160  and  _162
REMARK   71  A    between atoms: _162  and  _163
REMARK   72  A    between atoms: _162  and  _165
REMARK   73  A    between atoms: _165  and  _166
REMARK   74  A    between atoms: _169  and  _171
REMARK   75  A    between atoms: _171  and  _172
REMARK   76  A    between atoms: _171  and  _174
REMARK   77  A    between atoms: _177  and  _179
REMARK   78  A    between atoms: _179  and  _180
REMARK   79  A    between atoms: _179  and  _182
REMARK   80  A    between atoms: _182  and  _183
REMARK   81  A    between atoms: _186  and  _188
REMARK   82  A    between atoms: _188  and  _189
REMARK   83  A    between atoms: _188  and  _191
REMARK   84  A    between atoms: _191  and  _192
REMARK   85  A    between atoms: _196  and  _197
REMARK   86  A    between atoms: _202  and  _204
REMARK   87  A    between atoms: _204  and  _205
REMARK   88  A    between atoms: _204  and  _207
REMARK   89  A    between atoms: _210  and  _212
REMARK   90  A    between atoms: _212  and  _213
REMARK   91  A    between atoms: _212  and  _215
REMARK   92  A    between atoms: _215  and  _216
REMARK   93  A    between atoms: _221  and  _223
REMARK   94  A    between atoms: _223  and  _224
REMARK   95  A    between atoms: _223  and  _226
REMARK   96  A    between atoms: _226  and  _227
REMARK   97  A    between atoms: _230  and  _232
REMARK   98  A    between atoms: _232  and  _233
REMARK   99  A    between atoms: _232  and  _235
REMARK  100  A    between atoms: _235  and  _236
REMARK  101  A    between atoms: _239  and  _241
REMARK  102  A    between atoms: _241  and  _242
REMARK  103  A    between atoms: _244  and  _246
REMARK  104  A    between atoms: _246  and  _247
REMARK  105  A    between atoms: _246  and  _249
REMARK  106  A    between atoms: _249  and  _250
REMARK  107  A    between atoms: _250  and  _251
REMARK  108  A    between atoms: _251  and  _252
REMARK  109  A    between atoms: _261  and  _263
REMARK  110  A    between atoms: _263  and  _264
REMARK  111  A    between atoms: _263  and  _266
REMARK  112  A    between atoms: _266  and  _267
REMARK  113  A    between atoms: _267  and  _268
REMARK  114  A    between atoms: _268  and  _269
REMARK  115  A    between atoms: _278  and  _280
REMARK  116  A    between atoms: _280  and  _281
REMARK  117  A    between atoms: _280  and  _283
REMARK  118  A    between atoms: _283  and  _284
REMARK  119  A    between atoms: _287  and  _289
REMARK  120  A    between atoms: _289  and  _290
REMARK  121  A    between atoms: _289  and  _292
REMARK  122  A    between atoms: _292  and  _293
REMARK  123  A    between atoms: _296  and  _298
REMARK  124  A    between atoms: _298  and  _299
REMARK  125  A    between atoms: _298  and  _301
REMARK  126  A    between atoms: _301  and  _302
REMARK  127  A    between atoms: _305  and  _307
REMARK  128  A    between atoms: _307  and  _308
REMARK  129  A    between atoms: _307  and  _310
REMARK  130  A    between atoms: _310  and  _311
REMARK  131  A    between atoms: _314  and  _316
REMARK  132  A    between atoms: _316  and  _317
REMARK  133  A    between atoms: _319  and  _321
REMARK  134  A    between atoms: _321  and  _322
REMARK  135  A    between atoms: _325  and  _327
REMARK  136  A    between atoms: _327  and  _328
REMARK  137  A    between atoms: _327  and  _330
REMARK  138  A    between atoms: _330  and  _331
REMARK  139  A    between atoms: _334  and  _336
REMARK  140  A    between atoms: _336  and  _337
REMARK  141  A    between atoms: _336  and  _339
REMARK  142  A    between atoms: _339  and  _340
REMARK  143  A    between atoms: _343  and  _345
REMARK  144  A    between atoms: _345  and  _346
REMARK  145  A    between atoms: _345  and  _348
REMARK  146  A    between atoms: _348  and  _349
REMARK  147  A    between atoms: _352  and  _354
REMARK  148  A    between atoms: _354  and  _355
REMARK  149  A    between atoms: _354  and  _357
REMARK  150  A    between atoms: _360  and  _362
REMARK  151  A    between atoms: _362  and  _363
REMARK  152  A    between atoms: _362  and  _365
REMARK  153  A    between atoms: _365  and  _366
REMARK  154  A    between atoms: _366  and  _367
REMARK  155  A    between atoms: _367  and  _368
REMARK  156  A    between atoms: _368  and  _369
REMARK  157  A    between atoms: _373  and  _375
REMARK  158  A    between atoms: _375  and  _376
REMARK  159  A    between atoms: _375  and  _378
REMARK  160  A    between atoms: _378  and  _379
REMARK  161  A    between atoms: _379  and  _380
REMARK  162  A    between atoms: _382  and  _384
REMARK  163  A    between atoms: _384  and  _385
REMARK  164  A    between atoms: _384  and  _387
REMARK  165  A    between atoms: _387  and  _388
REMARK  166  A    between atoms: _391  and  _393
REMARK  167  A    between atoms: _393  and  _394
REMARK  168  A    between atoms: _396  and  _398
REMARK  169  A    between atoms: _398  and  _399
REMARK  170  A    between atoms: _401  and  _403
REMARK  171  A    between atoms: _403  and  _404
REMARK  172  A    between atoms: _403  and  _406
REMARK  173  A    between atoms: _406  and  _407
REMARK  174  A    between atoms: _410  and  _412
REMARK  175  A    between atoms: _412  and  _413
REMARK  176  A    between atoms: _415  and  _417
REMARK  177  A    between atoms: _417  and  _418
REMARK  178  A    between atoms: _420  and  _422
REMARK  179  A    between atoms: _422  and  _423
REMARK  180  A    between atoms: _422  and  _425
REMARK  181  A    between atoms: _425  and  _426
REMARK  182  A    between atoms: _432  and  _434
REMARK  183  A    between atoms: _434  and  _435
REMARK  184  A    between atoms: _434  and  _437
REMARK  185  A    between atoms: _437  and  _438
REMARK  186  A    between atoms: _441  and  _443
REMARK  187  A    between atoms: _443  and  _444
REMARK  188  A    between atoms: _443  and  _446
REMARK  189  A    between atoms: _446  and  _447
REMARK  190  A    between atoms: _450  and  _452
REMARK  191  A    between atoms: _452  and  _453
REMARK  192  A    between atoms: _452  and  _455
REMARK  193  A    between atoms: _455  and  _456
REMARK  194  A    between atoms: _460  and  _461
REMARK  195  A    between atoms: _466  and  _468
REMARK  196  A    between atoms: _468  and  _469
REMARK  197  A    between atoms: _468  and  _471
REMARK  198  A    between atoms: _474  and  _476
REMARK  199  A    between atoms: _476  and  _477
REMARK  200  A    between atoms: _476  and  _479
REMARK  201  A    between atoms: _479  and  _480
REMARK  202  A    between atoms: _485  and  _487
REMARK  203  A    between atoms: _487  and  _488
REMARK  204  A    between atoms: _487  and  _490
REMARK  205  A    between atoms: _490  and  _491
REMARK  206  A    between atoms: _494  and  _496
REMARK  207  A    between atoms: _496  and  _497
REMARK  208  A    between atoms: _496  and  _499
REMARK  209  A    between atoms: _499  and  _500
REMARK  210  A    between atoms: _503  and  _505
REMARK  211  A    between atoms: _505  and  _506
REMARK  212  A    between atoms: _508  and  _510
REMARK  213  A    between atoms: _510  and  _511
REMARK  214  A    between atoms: _510  and  _513
REMARK  215  A    between atoms: _513  and  _514
REMARK  216  A    between atoms: _514  and  _515
REMARK  217  A    between atoms: _515  and  _516
REMARK  218  A    between atoms: _525  and  _527
REMARK  219  A    between atoms: _527  and  _528
REMARK  220  A    between atoms: _527  and  _530
REMARK  221  A    between atoms: _530  and  _531
REMARK                            x       y       z     vdW  Elec       q    Type
REMARK                         _______ _______ _______ _____ _____    ______ ____
ROOT
ATOM      1  O   HOH     1      26.599  23.031   5.223  0.00  0.00    +0.000 OA
ENDROOT
TORSDOF 0
REMARK  Name = ../refined-set-2016/2qi6/2qi6_pocket.pdb
REMARK  221 active torsions:
REMARK  status: ('A' for Active; 'I' for Inactive)
REMARK    1  A    between atoms: _1  and  _3
REMARK    2  A    between atoms: _3  and  _4
REMARK    3  A    between atoms: _3  and  _6
REMARK    4  A    between atoms: _6  and  _7
REMARK    5  A    between atoms: _7  and  _8
REMARK    6  A    between atoms: _8  and  _9
REMARK    7  A    between atoms: _18  and  _20
REMARK    8  A    between atoms: _20  and  _21
REMARK    9  A    between atoms: _20  and  _23
REMARK   10  A    between atoms: _23  and  _24
REMARK   11  A    between atoms: _27  and  _29
REMARK   12  A    between atoms: _29  and  _30
REMARK   13  A    between atoms: _29  and  _32
REMARK   14  A    between atoms: _32  and  _33
REMARK   15  A    between atoms: _36  and  _38
REMARK   16  A    between atoms: _38  and  _39
REMARK   17  A    between atoms: _38  and  _41
REMARK   18  A    between atoms: _41  and  _42
REMARK   19  A    between atoms: _45  and  _47
REMARK   20  A    between atoms: _47  and  _48
REMARK   21  A    between atoms: _47  and  _50
REMARK   22  A    between atoms: _50  and  _51
REMARK   23  A    between atoms: _54  and  _56
REMARK   24  A    between atoms: _56  and  _57
REMARK   25  A    between atoms: _59  and  _61
REMARK   26  A    between atoms: _61  and  _62
REMARK   27  A    between atoms: _65  and  _67
REMARK   28  A    between atoms: _67  and  _68
REMARK   29  A    between atoms: _67  and  _70
REMARK   30  A    between atoms: _70  and  _71
REMARK   31  A    between atoms: _74  and  _76
REMARK   32  A    between atoms: _76  and  _77
REMARK   33  A    between atoms: _76  and  _79
REMARK   34  A    between atoms: _79  and  _80
REMARK   35  A    between atoms: _83  and  _85
REMARK   36  A    between atoms: _85  and  _86
REMARK   37  A    between atoms: _85  and  _88
REMARK   38  A    between atoms: _88  and  _89
REMARK   39  A    between atoms: _92  and  _94
REMARK   40  A    between atoms: _94  and  _95
REMARK   41  A    between atoms: _94  and  _97
REMARK   42  A    between atoms: _100  and  _102
REMARK   43  A    between atoms: _102  and  _103
REMARK   44  A    between atoms: _102  and  _105
REMARK   45  A    between atoms: _105  and  _106
REMARK   46  A    between atoms: _106  and  _107
REMARK   47  A    between atoms: _107  and  _108
REMARK   48  A    between atoms: _108  and  _109
REMARK   49  A    between atoms: _113  and  _115
REMARK   50  A    between atoms: _115  and  _116
REMARK   51  A    between atoms: _115  and  _118
REMARK   52  A    between atoms: _118  and  _119
REMARK   53  A    between atoms: _119  and  _120
REMARK   54  A    between atoms: _122  and  _124
REMARK   55  A    between atoms: _124  and  _125
REMARK   56  A    between atoms: _124  and  _127
REMARK   57  A    between atoms: _127  and  _128
REMARK   58  A    between atoms: _131  and  _133
REMARK   59  A    between atoms: _133  and  _134
REMARK   60  A    between atoms: _136  and  _138
REMARK   61  A    between atoms: _138  and  _139
REMARK   62  A    between atoms: _141  and  _143
REMARK   63  A    between atoms: _143  and  _144
REMARK   64  A    between atoms: _143  and  _146
REMARK   65  A    between atoms: _146  and  _147
REMARK   66  A    between atoms: _150  and  _152
REMARK   67  A    between atoms: _152  and  _153
REMARK   68  A    between atoms: _155  and  _157
REMARK   69  A    between atoms: _157  and  _158
REMARK   70  A    between atoms: _160  and  _162
REMARK   71  A    between atoms: _162  and  _163
REMARK   72  A    between atoms: _162  and  _165
REMARK   73  A    between atoms: _165  and  _166
REMARK   74  A    between atoms: _169  and  _171
REMARK   75  A    between atoms: _171  and  _172
REMARK   76  A    between atoms: _171  and  _174
REMARK   77  A    between atoms: _177  and  _179
REMARK   78  A    between atoms: _179  and  _180
REMARK   79  A    between atoms: _179  and  _182
REMARK   80  A    between atoms: _182  and  _183
REMARK   81  A    between atoms: _186  and  _188
REMARK   82  A    between atoms: _188  and  _189
REMARK   83  A    between atoms: _188  and  _191
REMARK   84  A    between atoms: _191  and  _192
REMARK   85  A    between atoms: _196  and  _197
REMARK   86  A    between atoms: _202  and  _204
REMARK   87  A    between atoms: _204  and  _205
REMARK   88  A    between atoms: _204  and  _207
REMARK   89  A    between atoms: _210  and  _212
REMARK   90  A    between atoms: _212  and  _213
REMARK   91  A    between atoms: _212  and  _215
REMARK   92  A    between atoms: _215  and  _216
REMARK   93  A    between atoms: _221  and  _223
REMARK   94  A    between atoms: _223  and  _224
REMARK   95  A    between atoms: _223  and  _226
REMARK   96  A    between atoms: _226  and  _227
REMARK   97  A    between atoms: _230  and  _232
REMARK   98  A    between atoms: _232  and  _233
REMARK   99  A    between atoms: _232  and  _235
REMARK  100  A    between atoms: _235  and  _236
REMARK  101  A    between atoms: _239  and  _241
REMARK  102  A    between atoms: _241  and  _242
REMARK  103  A    between atoms: _244  and  _246
REMARK  104  A    between atoms: _246  and  _247
REMARK  105  A    between atoms: _246  and  _249
REMARK  106  A    between atoms: _249  and  _250
REMARK  107  A    between atoms: _250  and  _251
REMARK  108  A    between atoms: _251  and  _252
REMARK  109  A    between atoms: _261  and  _263
REMARK  110  A    between atoms: _263  and  _264
REMARK  111  A    between atoms: _263  and  _266
REMARK  112  A    between atoms: _266  and  _267
REMARK  113  A    between atoms: _267  and  _268
REMARK  114  A    between atoms: _268  and  _269
REMARK  115  A    between atoms: _278  and  _280
REMARK  116  A    between atoms: _280  and  _281
REMARK  117  A    between atoms: _280  and  _283
REMARK  118  A    between atoms: _283  and  _284
REMARK  119  A    between atoms: _287  and  _289
REMARK  120  A    between atoms: _289  and  _290
REMARK  121  A    between atoms: _289  and  _292
REMARK  122  A    between atoms: _292  and  _293
REMARK  123  A    between atoms: _296  and  _298
REMARK  124  A    between atoms: _298  and  _299
REMARK  125  A    between atoms: _298  and  _301
REMARK  126  A    between atoms: _301  and  _302
REMARK  127  A    between atoms: _305  and  _307
REMARK  128  A    between atoms: _307  and  _308
REMARK  129  A    between atoms: _307  and  _310
REMARK  130  A    between atoms: _310  and  _311
REMARK  131  A    between atoms: _314  and  _316
REMARK  132  A    between atoms: _316  and  _317
REMARK  133  A    between atoms: _319  and  _321
REMARK  134  A    between atoms: _321  and  _322
REMARK  135  A    between atoms: _325  and  _327
REMARK  136  A    between atoms: _327  and  _328
REMARK  137  A    between atoms: _327  and  _330
REMARK  138  A    between atoms: _330  and  _331
REMARK  139  A    between atoms: _334  and  _336
REMARK  140  A    between atoms: _336  and  _337
REMARK  141  A    between atoms: _336  and  _339
REMARK  142  A    between atoms: _339  and  _340
REMARK  143  A    between atoms: _343  and  _345
REMARK  144  A    between atoms: _345  and  _346
REMARK  145  A    between atoms: _345  and  _348
REMARK  146  A    between atoms: _348  and  _349
REMARK  147  A    between atoms: _352  and  _354
REMARK  148  A    between atoms: _354  and  _355
REMARK  149  A    between atoms: _354  and  _357
REMARK  150  A    between atoms: _360  and  _362
REMARK  151  A    between atoms: _362  and  _363
REMARK  152  A    between atoms: _362  and  _365
REMARK  153  A    between atoms: _365  and  _366
REMARK  154  A    between atoms: _366  and  _367
REMARK  155  A    between atoms: _367  and  _368
REMARK  156  A    between atoms: _368  and  _369
REMARK  157  A    between atoms: _373  and  _375
REMARK  158  A    between atoms: _375  and  _376
REMARK  159  A    between atoms: _375  and  _378
REMARK  160  A    between atoms: _378  and  _379
REMARK  161  A    between atoms: _379  and  _380
REMARK  162  A    between atoms: _382  and  _384
REMARK  163  A    between atoms: _384  and  _385
REMARK  164  A    between atoms: _384  and  _387
REMARK  165  A    between atoms: _387  and  _388
REMARK  166  A    between atoms: _391  and  _393
REMARK  167  A    between atoms: _393  and  _394
REMARK  168  A    between atoms: _396  and  _398
REMARK  169  A    between atoms: _398  and  _399
REMARK  170  A    between atoms: _401  and  _403
REMARK  171  A    between atoms: _403  and  _404
REMARK  172  A    between atoms: _403  and  _406
REMARK  173  A    between atoms: _406  and  _407
REMARK  174  A    between atoms: _410  and  _412
REMARK  175  A    between atoms: _412  and  _413
REMARK  176  A    between atoms: _415  and  _417
REMARK  177  A    between atoms: _417  and  _418
REMARK  178  A    between atoms: _420  and  _422
REMARK  179  A    between atoms: _422  and  _423
REMARK  180  A    between atoms: _422  and  _425
REMARK  181  A    between atoms: _425  and  _426
REMARK  182  A    between atoms: _432  and  _434
REMARK  183  A    between atoms: _434  and  _435
REMARK  184  A    between atoms: _434  and  _437
REMARK  185  A    between atoms: _437  and  _438
REMARK  186  A    between atoms: _441  and  _443
REMARK  187  A    between atoms: _443  and  _444
REMARK  188  A    between atoms: _443  and  _446
REMARK  189  A    between atoms: _446  and  _447
REMARK  190  A    between atoms: _450  and  _452
REMARK  191  A    between atoms: _452  and  _453
REMARK  192  A    between atoms: _452  and  _455
REMARK  193  A    between atoms: _455  and  _456
REMARK  194  A    between atoms: _460  and  _461
REMARK  195  A    between atoms: _466  and  _468
REMARK  196  A    between atoms: _468  and  _469
REMARK  197  A    between atoms: _468  and  _471
REMARK  198  A    between atoms: _474  and  _476
REMARK  199  A    between atoms: _476  and  _477
REMARK  200  A    between atoms: _476  and  _479
REMARK  201  A    between atoms: _479  and  _480
REMARK  202  A    between atoms: _485  and  _487
REMARK  203  A    between atoms: _487  and  _488
REMARK  204  A    between atoms: _487  and  _490
REMARK  205  A    between atoms: _490  and  _491
REMARK  206  A    between atoms: _494  and  _496
REMARK  207  A    between atoms: _496  and  _497
REMARK  208  A    between atoms: _496  and  _499
REMARK  209  A    between atoms: _499  and  _500
REMARK  210  A    between atoms: _503  and  _505
REMARK  211  A    between atoms: _505  and  _506
REMARK  212  A    between atoms: _508  and  _510
REMARK  213  A    between atoms: _510  and  _511
REMARK  214  A    between atoms: _510  and  _513
REMARK  215  A    between atoms: _513  and  _514
REMARK  216  A    between atoms: _514  and  _515
REMARK  217  A    between atoms: _515  and  _516
REMARK  218  A    between atoms: _525  and  _527
REMARK  219  A    between atoms: _527  and  _528
REMARK  220  A    between atoms: _527  and  _530
REMARK  221  A    between atoms: _530  and  _531
REMARK                            x       y       z     vdW  Elec       q    Type
REMARK                         _______ _______ _______ _____ _____    ______ ____
ROOT
ATOM      1  O   HOH     1      31.126  21.916   8.225  0.00  0.00    +0.000 OA
ENDROOT
TORSDOF 0
REMARK  Name = ../refined-set-2016/2qi6/2qi6_pocket.pdb
REMARK  221 active torsions:
REMARK  status: ('A' for Active; 'I' for Inactive)
REMARK    1  A    between atoms: _1  and  _3
REMARK    2  A    between atoms: _3  and  _4
REMARK    3  A    between atoms: _3  and  _6
REMARK    4  A    between atoms: _6  and  _7
REMARK    5  A    between atoms: _7  and  _8
REMARK    6  A    between atoms: _8  and  _9
REMARK    7  A    between atoms: _18  and  _20
REMARK    8  A    between atoms: _20  and  _21
REMARK    9  A    between atoms: _20  and  _23
REMARK   10  A    between atoms: _23  and  _24
REMARK   11  A    between atoms: _27  and  _29
REMARK   12  A    between atoms: _29  and  _30
REMARK   13  A    between atoms: _29  and  _32
REMARK   14  A    between atoms: _32  and  _33
REMARK   15  A    between atoms: _36  and  _38
REMARK   16  A    between atoms: _38  and  _39
REMARK   17  A    between atoms: _38  and  _41
REMARK   18  A    between atoms: _41  and  _42
REMARK   19  A    between atoms: _45  and  _47
REMARK   20  A    between atoms: _47  and  _48
REMARK   21  A    between atoms: _47  and  _50
REMARK   22  A    between atoms: _50  and  _51
REMARK   23  A    between atoms: _54  and  _56
REMARK   24  A    between atoms: _56  and  _57
REMARK   25  A    between atoms: _59  and  _61
REMARK   26  A    between atoms: _61  and  _62
REMARK   27  A    between atoms: _65  and  _67
REMARK   28  A    between atoms: _67  and  _68
REMARK   29  A    between atoms: _67  and  _70
REMARK   30  A    between atoms: _70  and  _71
REMARK   31  A    between atoms: _74  and  _76
REMARK   32  A    between atoms: _76  and  _77
REMARK   33  A    between atoms: _76  and  _79
REMARK   34  A    between atoms: _79  and  _80
REMARK   35  A    between atoms: _83  and  _85
REMARK   36  A    between atoms: _85  and  _86
REMARK   37  A    between atoms: _85  and  _88
REMARK   38  A    between atoms: _88  and  _89
REMARK   39  A    between atoms: _92  and  _94
REMARK   40  A    between atoms: _94  and  _95
REMARK   41  A    between atoms: _94  and  _97
REMARK   42  A    between atoms: _100  and  _102
REMARK   43  A    between atoms: _102  and  _103
REMARK   44  A    between atoms: _102  and  _105
REMARK   45  A    between atoms: _105  and  _106
REMARK   46  A    between atoms: _106  and  _107
REMARK   47  A    between atoms: _107  and  _108
REMARK   48  A    between atoms: _108  and  _109
REMARK   49  A    between atoms: _113  and  _115
REMARK   50  A    between atoms: _115  and  _116
REMARK   51  A    between atoms: _115  and  _118
REMARK   52  A    between atoms: _118  and  _119
REMARK   53  A    between atoms: _119  and  _120
REMARK   54  A    between atoms: _122  and  _124
REMARK   55  A    between atoms: _124  and  _125
REMARK   56  A    between atoms: _124  and  _127
REMARK   57  A    between atoms: _127  and  _128
REMARK   58  A    between atoms: _131  and  _133
REMARK   59  A    between atoms: _133  and  _134
REMARK   60  A    between atoms: _136  and  _138
REMARK   61  A    between atoms: _138  and  _139
REMARK   62  A    between atoms: _141  and  _143
REMARK   63  A    between atoms: _143  and  _144
REMARK   64  A    between atoms: _143  and  _146
REMARK   65  A    between atoms: _146  and  _147
REMARK   66  A    between atoms: _150  and  _152
REMARK   67  A    between atoms: _152  and  _153
REMARK   68  A    between atoms: _155  and  _157
REMARK   69  A    between atoms: _157  and  _158
REMARK   70  A    between atoms: _160  and  _162
REMARK   71  A    between atoms: _162  and  _163
REMARK   72  A    between atoms: _162  and  _165
REMARK   73  A    between atoms: _165  and  _166
REMARK   74  A    between atoms: _169  and  _171
REMARK   75  A    between atoms: _171  and  _172
REMARK   76  A    between atoms: _171  and  _174
REMARK   77  A    between atoms: _177  and  _179
REMARK   78  A    between atoms: _179  and  _180
REMARK   79  A    between atoms: _179  and  _182
REMARK   80  A    between atoms: _182  and  _183
REMARK   81  A    between atoms: _186  and  _188
REMARK   82  A    between atoms: _188  and  _189
REMARK   83  A    between atoms: _188  and  _191
REMARK   84  A    between atoms: _191  and  _192
REMARK   85  A    between atoms: _196  and  _197
REMARK   86  A    between atoms: _202  and  _204
REMARK   87  A    between atoms: _204  and  _205
REMARK   88  A    between atoms: _204  and  _207
REMARK   89  A    between atoms: _210  and  _212
REMARK   90  A    between atoms: _212  and  _213
REMARK   91  A    between atoms: _212  and  _215
REMARK   92  A    between atoms: _215  and  _216
REMARK   93  A    between atoms: _221  and  _223
REMARK   94  A    between atoms: _223  and  _224
REMARK   95  A    between atoms: _223  and  _226
REMARK   96  A    between atoms: _226  and  _227
REMARK   97  A    between atoms: _230  and  _232
REMARK   98  A    between atoms: _232  and  _233
REMARK   99  A    between atoms: _232  and  _235
REMARK  100  A    between atoms: _235  and  _236
REMARK  101  A    between atoms: _239  and  _241
REMARK  102  A    between atoms: _241  and  _242
REMARK  103  A    between atoms: _244  and  _246
REMARK  104  A    between atoms: _246  and  _247
REMARK  105  A    between atoms: _246  and  _249
REMARK  106  A    between atoms: _249  and  _250
REMARK  107  A    between atoms: _250  and  _251
REMARK  108  A    between atoms: _251  and  _252
REMARK  109  A    between atoms: _261  and  _263
REMARK  110  A    between atoms: _263  and  _264
REMARK  111  A    between atoms: _263  and  _266
REMARK  112  A    between atoms: _266  and  _267
REMARK  113  A    between atoms: _267  and  _268
REMARK  114  A    between atoms: _268  and  _269
REMARK  115  A    between atoms: _278  and  _280
REMARK  116  A    between atoms: _280  and  _281
REMARK  117  A    between atoms: _280  and  _283
REMARK  118  A    between atoms: _283  and  _284
REMARK  119  A    between atoms: _287  and  _289
REMARK  120  A    between atoms: _289  and  _290
REMARK  121  A    between atoms: _289  and  _292
REMARK  122  A    between atoms: _292  and  _293
REMARK  123  A    between atoms: _296  and  _298
REMARK  124  A    between atoms: _298  and  _299
REMARK  125  A    between atoms: _298  and  _301
REMARK  126  A    between atoms: _301  and  _302
REMARK  127  A    between atoms: _305  and  _307
REMARK  128  A    between atoms: _307  and  _308
REMARK  129  A    between atoms: _307  and  _310
REMARK  130  A    between atoms: _310  and  _311
REMARK  131  A    between atoms: _314  and  _316
REMARK  132  A    between atoms: _316  and  _317
REMARK  133  A    between atoms: _319  and  _321
REMARK  134  A    between atoms: _321  and  _322
REMARK  135  A    between atoms: _325  and  _327
REMARK  136  A    between atoms: _327  and  _328
REMARK  137  A    between atoms: _327  and  _330
REMARK  138  A    between atoms: _330  and  _331
REMARK  139  A    between atoms: _334  and  _336
REMARK  140  A    between atoms: _336  and  _337
REMARK  141  A    between atoms: _336  and  _339
REMARK  142  A    between atoms: _339  and  _340
REMARK  143  A    between atoms: _343  and  _345
REMARK  144  A    between atoms: _345  and  _346
REMARK  145  A    between atoms: _345  and  _348
REMARK  146  A    between atoms: _348  and  _349
REMARK  147  A    between atoms: _352  and  _354
REMARK  148  A    between atoms: _354  and  _355
REMARK  149  A    between atoms: _354  and  _357
REMARK  150  A    between atoms: _360  and  _362
REMARK  151  A    between atoms: _362  and  _363
REMARK  152  A    between atoms: _362  and  _365
REMARK  153  A    between atoms: _365  and  _366
REMARK  154  A    between atoms: _366  and  _367
REMARK  155  A    between atoms: _367  and  _368
REMARK  156  A    between atoms: _368  and  _369
REMARK  157  A    between atoms: _373  and  _375
REMARK  158  A    between atoms: _375  and  _376
REMARK  159  A    between atoms: _375  and  _378
REMARK  160  A    between atoms: _378  and  _379
REMARK  161  A    between atoms: _379  and  _380
REMARK  162  A    between atoms: _382  and  _384
REMARK  163  A    between atoms: _384  and  _385
REMARK  164  A    between atoms: _384  and  _387
REMARK  165  A    between atoms: _387  and  _388
REMARK  166  A    between atoms: _391  and  _393
REMARK  167  A    between atoms: _393  and  _394
REMARK  168  A    between atoms: _396  and  _398
REMARK  169  A    between atoms: _398  and  _399
REMARK  170  A    between atoms: _401  and  _403
REMARK  171  A    between atoms: _403  and  _404
REMARK  172  A    between atoms: _403  and  _406
REMARK  173  A    between atoms: _406  and  _407
REMARK  174  A    between atoms: _410  and  _412
REMARK  175  A    between atoms: _412  and  _413
REMARK  176  A    between atoms: _415  and  _417
REMARK  177  A    between atoms: _417  and  _418
REMARK  178  A    between atoms: _420  and  _422
REMARK  179  A    between atoms: _422  and  _423
REMARK  180  A    between atoms: _422  and  _425
REMARK  181  A    between atoms: _425  and  _426
REMARK  182  A    between atoms: _432  and  _434
REMARK  183  A    between atoms: _434  and  _435
REMARK  184  A    between atoms: _434  and  _437
REMARK  185  A    between atoms: _437  and  _438
REMARK  186  A    between atoms: _441  and  _443
REMARK  187  A    between atoms: _443  and  _444
REMARK  188  A    between atoms: _443  and  _446
REMARK  189  A    between atoms: _446  and  _447
REMARK  190  A    between atoms: _450  and  _452
REMARK  191  A    between atoms: _452  and  _453
REMARK  192  A    between atoms: _452  and  _455
REMARK  193  A    between atoms: _455  and  _456
REMARK  194  A    between atoms: _460  and  _461
REMARK  195  A    between atoms: _466  and  _468
REMARK  196  A    between atoms: _468  and  _469
REMARK  197  A    between atoms: _468  and  _471
REMARK  198  A    between atoms: _474  and  _476
REMARK  199  A    between atoms: _476  and  _477
REMARK  200  A    between atoms: _476  and  _479
REMARK  201  A    between atoms: _479  and  _480
REMARK  202  A    between atoms: _485  and  _487
REMARK  203  A    between atoms: _487  and  _488
REMARK  204  A    between atoms: _487  and  _490
REMARK  205  A    between atoms: _490  and  _491
REMARK  206  A    between atoms: _494  and  _496
REMARK  207  A    between atoms: _496  and  _497
REMARK  208  A    between atoms: _496  and  _499
REMARK  209  A    between atoms: _499  and  _500
REMARK  210  A    between atoms: _503  and  _505
REMARK  211  A    between atoms: _505  and  _506
REMARK  212  A    between atoms: _508  and  _510
REMARK  213  A    between atoms: _510  and  _511
REMARK  214  A    between atoms: _510  and  _513
REMARK  215  A    between atoms: _513  and  _514
REMARK  216  A    between atoms: _514  and  _515
REMARK  217  A    between atoms: _515  and  _516
REMARK  218  A    between atoms: _525  and  _527
REMARK  219  A    between atoms: _527  and  _528
REMARK  220  A    between atoms: _527  and  _530
REMARK  221  A    between atoms: _530  and  _531
REMARK                            x       y       z     vdW  Elec       q    Type
REMARK                         _______ _______ _______ _____ _____    ______ ____
ROOT
ATOM      1  O   HOH     1      18.613  29.456   5.618  0.00  0.00    +0.000 OA
ENDROOT
TORSDOF 0
REMARK  Name = ../refined-set-2016/2qi6/2qi6_pocket.pdb
REMARK  221 active torsions:
REMARK  status: ('A' for Active; 'I' for Inactive)
REMARK    1  A    between atoms: _1  and  _3
REMARK    2  A    between atoms: _3  and  _4
REMARK    3  A    between atoms: _3  and  _6
REMARK    4  A    between atoms: _6  and  _7
REMARK    5  A    between atoms: _7  and  _8
REMARK    6  A    between atoms: _8  and  _9
REMARK    7  A    between atoms: _18  and  _20
REMARK    8  A    between atoms: _20  and  _21
REMARK    9  A    between atoms: _20  and  _23
REMARK   10  A    between atoms: _23  and  _24
REMARK   11  A    between atoms: _27  and  _29
REMARK   12  A    between atoms: _29  and  _30
REMARK   13  A    between atoms: _29  and  _32
REMARK   14  A    between atoms: _32  and  _33
REMARK   15  A    between atoms: _36  and  _38
REMARK   16  A    between atoms: _38  and  _39
REMARK   17  A    between atoms: _38  and  _41
REMARK   18  A    between atoms: _41  and  _42
REMARK   19  A    between atoms: _45  and  _47
REMARK   20  A    between atoms: _47  and  _48
REMARK   21  A    between atoms: _47  and  _50
REMARK   22  A    between atoms: _50  and  _51
REMARK   23  A    between atoms: _54  and  _56
REMARK   24  A    between atoms: _56  and  _57
REMARK   25  A    between atoms: _59  and  _61
REMARK   26  A    between atoms: _61  and  _62
REMARK   27  A    between atoms: _65  and  _67
REMARK   28  A    between atoms: _67  and  _68
REMARK   29  A    between atoms: _67  and  _70
REMARK   30  A    between atoms: _70  and  _71
REMARK   31  A    between atoms: _74  and  _76
REMARK   32  A    between atoms: _76  and  _77
REMARK   33  A    between atoms: _76  and  _79
REMARK   34  A    between atoms: _79  and  _80
REMARK   35  A    between atoms: _83  and  _85
REMARK   36  A    between atoms: _85  and  _86
REMARK   37  A    between atoms: _85  and  _88
REMARK   38  A    between atoms: _88  and  _89
REMARK   39  A    between atoms: _92  and  _94
REMARK   40  A    between atoms: _94  and  _95
REMARK   41  A    between atoms: _94  and  _97
REMARK   42  A    between atoms: _100  and  _102
REMARK   43  A    between atoms: _102  and  _103
REMARK   44  A    between atoms: _102  and  _105
REMARK   45  A    between atoms: _105  and  _106
REMARK   46  A    between atoms: _106  and  _107
REMARK   47  A    between atoms: _107  and  _108
REMARK   48  A    between atoms: _108  and  _109
REMARK   49  A    between atoms: _113  and  _115
REMARK   50  A    between atoms: _115  and  _116
REMARK   51  A    between atoms: _115  and  _118
REMARK   52  A    between atoms: _118  and  _119
REMARK   53  A    between atoms: _119  and  _120
REMARK   54  A    between atoms: _122  and  _124
REMARK   55  A    between atoms: _124  and  _125
REMARK   56  A    between atoms: _124  and  _127
REMARK   57  A    between atoms: _127  and  _128
REMARK   58  A    between atoms: _131  and  _133
REMARK   59  A    between atoms: _133  and  _134
REMARK   60  A    between atoms: _136  and  _138
REMARK   61  A    between atoms: _138  and  _139
REMARK   62  A    between atoms: _141  and  _143
REMARK   63  A    between atoms: _143  and  _144
REMARK   64  A    between atoms: _143  and  _146
REMARK   65  A    between atoms: _146  and  _147
REMARK   66  A    between atoms: _150  and  _152
REMARK   67  A    between atoms: _152  and  _153
REMARK   68  A    between atoms: _155  and  _157
REMARK   69  A    between atoms: _157  and  _158
REMARK   70  A    between atoms: _160  and  _162
REMARK   71  A    between atoms: _162  and  _163
REMARK   72  A    between atoms: _162  and  _165
REMARK   73  A    between atoms: _165  and  _166
REMARK   74  A    between atoms: _169  and  _171
REMARK   75  A    between atoms: _171  and  _172
REMARK   76  A    between atoms: _171  and  _174
REMARK   77  A    between atoms: _177  and  _179
REMARK   78  A    between atoms: _179  and  _180
REMARK   79  A    between atoms: _179  and  _182
REMARK   80  A    between atoms: _182  and  _183
REMARK   81  A    between atoms: _186  and  _188
REMARK   82  A    between atoms: _188  and  _189
REMARK   83  A    between atoms: _188  and  _191
REMARK   84  A    between atoms: _191  and  _192
REMARK   85  A    between atoms: _196  and  _197
REMARK   86  A    between atoms: _202  and  _204
REMARK   87  A    between atoms: _204  and  _205
REMARK   88  A    between atoms: _204  and  _207
REMARK   89  A    between atoms: _210  and  _212
REMARK   90  A    between atoms: _212  and  _213
REMARK   91  A    between atoms: _212  and  _215
REMARK   92  A    between atoms: _215  and  _216
REMARK   93  A    between atoms: _221  and  _223
REMARK   94  A    between atoms: _223  and  _224
REMARK   95  A    between atoms: _223  and  _226
REMARK   96  A    between atoms: _226  and  _227
REMARK   97  A    between atoms: _230  and  _232
REMARK   98  A    between atoms: _232  and  _233
REMARK   99  A    between atoms: _232  and  _235
REMARK  100  A    between atoms: _235  and  _236
REMARK  101  A    between atoms: _239  and  _241
REMARK  102  A    between atoms: _241  and  _242
REMARK  103  A    between atoms: _244  and  _246
REMARK  104  A    between atoms: _246  and  _247
REMARK  105  A    between atoms: _246  and  _249
REMARK  106  A    between atoms: _249  and  _250
REMARK  107  A    between atoms: _250  and  _251
REMARK  108  A    between atoms: _251  and  _252
REMARK  109  A    between atoms: _261  and  _263
REMARK  110  A    between atoms: _263  and  _264
REMARK  111  A    between atoms: _263  and  _266
REMARK  112  A    between atoms: _266  and  _267
REMARK  113  A    between atoms: _267  and  _268
REMARK  114  A    between atoms: _268  and  _269
REMARK  115  A    between atoms: _278  and  _280
REMARK  116  A    between atoms: _280  and  _281
REMARK  117  A    between atoms: _280  and  _283
REMARK  118  A    between atoms: _283  and  _284
REMARK  119  A    between atoms: _287  and  _289
REMARK  120  A    between atoms: _289  and  _290
REMARK  121  A    between atoms: _289  and  _292
REMARK  122  A    between atoms: _292  and  _293
REMARK  123  A    between atoms: _296  and  _298
REMARK  124  A    between atoms: _298  and  _299
REMARK  125  A    between atoms: _298  and  _301
REMARK  126  A    between atoms: _301  and  _302
REMARK  127  A    between atoms: _305  and  _307
REMARK  128  A    between atoms: _307  and  _308
REMARK  129  A    between atoms: _307  and  _310
REMARK  130  A    between atoms: _310  and  _311
REMARK  131  A    between atoms: _314  and  _316
REMARK  132  A    between atoms: _316  and  _317
REMARK  133  A    between atoms: _319  and  _321
REMARK  134  A    between atoms: _321  and  _322
REMARK  135  A    between atoms: _325  and  _327
REMARK  136  A    between atoms: _327  and  _328
REMARK  137  A    between atoms: _327  and  _330
REMARK  138  A    between atoms: _330  and  _331
REMARK  139  A    between atoms: _334  and  _336
REMARK  140  A    between atoms: _336  and  _337
REMARK  141  A    between atoms: _336  and  _339
REMARK  142  A    between atoms: _339  and  _340
REMARK  143  A    between atoms: _343  and  _345
REMARK  144  A    between atoms: _345  and  _346
REMARK  145  A    between atoms: _345  and  _348
REMARK  146  A    between atoms: _348  and  _349
REMARK  147  A    between atoms: _352  and  _354
REMARK  148  A    between atoms: _354  and  _355
REMARK  149  A    between atoms: _354  and  _357
REMARK  150  A    between atoms: _360  and  _362
REMARK  151  A    between atoms: _362  and  _363
REMARK  152  A    between atoms: _362  and  _365
REMARK  153  A    between atoms: _365  and  _366
REMARK  154  A    between atoms: _366  and  _367
REMARK  155  A    between atoms: _367  and  _368
REMARK  156  A    between atoms: _368  and  _369
REMARK  157  A    between atoms: _373  and  _375
REMARK  158  A    between atoms: _375  and  _376
REMARK  159  A    between atoms: _375  and  _378
REMARK  160  A    between atoms: _378  and  _379
REMARK  161  A    between atoms: _379  and  _380
REMARK  162  A    between atoms: _382  and  _384
REMARK  163  A    between atoms: _384  and  _385
REMARK  164  A    between atoms: _384  and  _387
REMARK  165  A    between atoms: _387  and  _388
REMARK  166  A    between atoms: _391  and  _393
REMARK  167  A    between atoms: _393  and  _394
REMARK  168  A    between atoms: _396  and  _398
REMARK  169  A    between atoms: _398  and  _399
REMARK  170  A    between atoms: _401  and  _403
REMARK  171  A    between atoms: _403  and  _404
REMARK  172  A    between atoms: _403  and  _406
REMARK  173  A    between atoms: _406  and  _407
REMARK  174  A    between atoms: _410  and  _412
REMARK  175  A    between atoms: _412  and  _413
REMARK  176  A    between atoms: _415  and  _417
REMARK  177  A    between atoms: _417  and  _418
REMARK  178  A    between atoms: _420  and  _422
REMARK  179  A    between atoms: _422  and  _423
REMARK  180  A    between atoms: _422  and  _425
REMARK  181  A    between atoms: _425  and  _426
REMARK  182  A    between atoms: _432  and  _434
REMARK  183  A    between atoms: _434  and  _435
REMARK  184  A    between atoms: _434  and  _437
REMARK  185  A    between atoms: _437  and  _438
REMARK  186  A    between atoms: _441  and  _443
REMARK  187  A    between atoms: _443  and  _444
REMARK  188  A    between atoms: _443  and  _446
REMARK  189  A    between atoms: _446  and  _447
REMARK  190  A    between atoms: _450  and  _452
REMARK  191  A    between atoms: _452  and  _453
REMARK  192  A    between atoms: _452  and  _455
REMARK  193  A    between atoms: _455  and  _456
REMARK  194  A    between atoms: _460  and  _461
REMARK  195  A    between atoms: _466  and  _468
REMARK  196  A    between atoms: _468  and  _469
REMARK  197  A    between atoms: _468  and  _471
REMARK  198  A    between atoms: _474  and  _476
REMARK  199  A    between atoms: _476  and  _477
REMARK  200  A    between atoms: _476  and  _479
REMARK  201  A    between atoms: _479  and  _480
REMARK  202  A    between atoms: _485  and  _487
REMARK  203  A    between atoms: _487  and  _488
REMARK  204  A    between atoms: _487  and  _490
REMARK  205  A    between atoms: _490  and  _491
REMARK  206  A    between atoms: _494  and  _496
REMARK  207  A    between atoms: _496  and  _497
REMARK  208  A    between atoms: _496  and  _499
REMARK  209  A    between atoms: _499  and  _500
REMARK  210  A    between atoms: _503  and  _505
REMARK  211  A    between atoms: _505  and  _506
REMARK  212  A    between atoms: _508  and  _510
REMARK  213  A    between atoms: _510  and  _511
REMARK  214  A    between atoms: _510  and  _513
REMARK  215  A    between atoms: _513  and  _514
REMARK  216  A    between atoms: _514  and  _515
REMARK  217  A    between atoms: _515  and  _516
REMARK  218  A    between atoms: _525  and  _527
REMARK  219  A    between atoms: _527  and  _528
REMARK  220  A    between atoms: _527  and  _530
REMARK  221  A    between atoms: _530  and  _531
REMARK                            x       y       z     vdW  Elec       q    Type
REMARK                         _______ _______ _______ _____ _____    ______ ____
ROOT
ATOM      1  O   HOH     1      26.692  20.926   8.962  0.00  0.00    +0.000 OA
ENDROOT
TORSDOF 0
REMARK  Name = ../refined-set-2016/2qi6/2qi6_pocket.pdb
REMARK  221 active torsions:
REMARK  status: ('A' for Active; 'I' for Inactive)
REMARK    1  A    between atoms: _1  and  _3
REMARK    2  A    between atoms: _3  and  _4
REMARK    3  A    between atoms: _3  and  _6
REMARK    4  A    between atoms: _6  and  _7
REMARK    5  A    between atoms: _7  and  _8
REMARK    6  A    between atoms: _8  and  _9
REMARK    7  A    between atoms: _18  and  _20
REMARK    8  A    between atoms: _20  and  _21
REMARK    9  A    between atoms: _20  and  _23
REMARK   10  A    between atoms: _23  and  _24
REMARK   11  A    between atoms: _27  and  _29
REMARK   12  A    between atoms: _29  and  _30
REMARK   13  A    between atoms: _29  and  _32
REMARK   14  A    between atoms: _32  and  _33
REMARK   15  A    between atoms: _36  and  _38
REMARK   16  A    between atoms: _38  and  _39
REMARK   17  A    between atoms: _38  and  _41
REMARK   18  A    between atoms: _41  and  _42
REMARK   19  A    between atoms: _45  and  _47
REMARK   20  A    between atoms: _47  and  _48
REMARK   21  A    between atoms: _47  and  _50
REMARK   22  A    between atoms: _50  and  _51
REMARK   23  A    between atoms: _54  and  _56
REMARK   24  A    between atoms: _56  and  _57
REMARK   25  A    between atoms: _59  and  _61
REMARK   26  A    between atoms: _61  and  _62
REMARK   27  A    between atoms: _65  and  _67
REMARK   28  A    between atoms: _67  and  _68
REMARK   29  A    between atoms: _67  and  _70
REMARK   30  A    between atoms: _70  and  _71
REMARK   31  A    between atoms: _74  and  _76
REMARK   32  A    between atoms: _76  and  _77
REMARK   33  A    between atoms: _76  and  _79
REMARK   34  A    between atoms: _79  and  _80
REMARK   35  A    between atoms: _83  and  _85
REMARK   36  A    between atoms: _85  and  _86
REMARK   37  A    between atoms: _85  and  _88
REMARK   38  A    between atoms: _88  and  _89
REMARK   39  A    between atoms: _92  and  _94
REMARK   40  A    between atoms: _94  and  _95
REMARK   41  A    between atoms: _94  and  _97
REMARK   42  A    between atoms: _100  and  _102
REMARK   43  A    between atoms: _102  and  _103
REMARK   44  A    between atoms: _102  and  _105
REMARK   45  A    between atoms: _105  and  _106
REMARK   46  A    between atoms: _106  and  _107
REMARK   47  A    between atoms: _107  and  _108
REMARK   48  A    between atoms: _108  and  _109
REMARK   49  A    between atoms: _113  and  _115
REMARK   50  A    between atoms: _115  and  _116
REMARK   51  A    between atoms: _115  and  _118
REMARK   52  A    between atoms: _118  and  _119
REMARK   53  A    between atoms: _119  and  _120
REMARK   54  A    between atoms: _122  and  _124
REMARK   55  A    between atoms: _124  and  _125
REMARK   56  A    between atoms: _124  and  _127
REMARK   57  A    between atoms: _127  and  _128
REMARK   58  A    between atoms: _131  and  _133
REMARK   59  A    between atoms: _133  and  _134
REMARK   60  A    between atoms: _136  and  _138
REMARK   61  A    between atoms: _138  and  _139
REMARK   62  A    between atoms: _141  and  _143
REMARK   63  A    between atoms: _143  and  _144
REMARK   64  A    between atoms: _143  and  _146
REMARK   65  A    between atoms: _146  and  _147
REMARK   66  A    between atoms: _150  and  _152
REMARK   67  A    between atoms: _152  and  _153
REMARK   68  A    between atoms: _155  and  _157
REMARK   69  A    between atoms: _157  and  _158
REMARK   70  A    between atoms: _160  and  _162
REMARK   71  A    between atoms: _162  and  _163
REMARK   72  A    between atoms: _162  and  _165
REMARK   73  A    between atoms: _165  and  _166
REMARK   74  A    between atoms: _169  and  _171
REMARK   75  A    between atoms: _171  and  _172
REMARK   76  A    between atoms: _171  and  _174
REMARK   77  A    between atoms: _177  and  _179
REMARK   78  A    between atoms: _179  and  _180
REMARK   79  A    between atoms: _179  and  _182
REMARK   80  A    between atoms: _182  and  _183
REMARK   81  A    between atoms: _186  and  _188
REMARK   82  A    between atoms: _188  and  _189
REMARK   83  A    between atoms: _188  and  _191
REMARK   84  A    between atoms: _191  and  _192
REMARK   85  A    between atoms: _196  and  _197
REMARK   86  A    between atoms: _202  and  _204
REMARK   87  A    between atoms: _204  and  _205
REMARK   88  A    between atoms: _204  and  _207
REMARK   89  A    between atoms: _210  and  _212
REMARK   90  A    between atoms: _212  and  _213
REMARK   91  A    between atoms: _212  and  _215
REMARK   92  A    between atoms: _215  and  _216
REMARK   93  A    between atoms: _221  and  _223
REMARK   94  A    between atoms: _223  and  _224
REMARK   95  A    between atoms: _223  and  _226
REMARK   96  A    between atoms: _226  and  _227
REMARK   97  A    between atoms: _230  and  _232
REMARK   98  A    between atoms: _232  and  _233
REMARK   99  A    between atoms: _232  and  _235
REMARK  100  A    between atoms: _235  and  _236
REMARK  101  A    between atoms: _239  and  _241
REMARK  102  A    between atoms: _241  and  _242
REMARK  103  A    between atoms: _244  and  _246
REMARK  104  A    between atoms: _246  and  _247
REMARK  105  A    between atoms: _246  and  _249
REMARK  106  A    between atoms: _249  and  _250
REMARK  107  A    between atoms: _250  and  _251
REMARK  108  A    between atoms: _251  and  _252
REMARK  109  A    between atoms: _261  and  _263
REMARK  110  A    between atoms: _263  and  _264
REMARK  111  A    between atoms: _263  and  _266
REMARK  112  A    between atoms: _266  and  _267
REMARK  113  A    between atoms: _267  and  _268
REMARK  114  A    between atoms: _268  and  _269
REMARK  115  A    between atoms: _278  and  _280
REMARK  116  A    between atoms: _280  and  _281
REMARK  117  A    between atoms: _280  and  _283
REMARK  118  A    between atoms: _283  and  _284
REMARK  119  A    between atoms: _287  and  _289
REMARK  120  A    between atoms: _289  and  _290
REMARK  121  A    between atoms: _289  and  _292
REMARK  122  A    between atoms: _292  and  _293
REMARK  123  A    between atoms: _296  and  _298
REMARK  124  A    between atoms: _298  and  _299
REMARK  125  A    between atoms: _298  and  _301
REMARK  126  A    between atoms: _301  and  _302
REMARK  127  A    between atoms: _305  and  _307
REMARK  128  A    between atoms: _307  and  _308
REMARK  129  A    between atoms: _307  and  _310
REMARK  130  A    between atoms: _310  and  _311
REMARK  131  A    between atoms: _314  and  _316
REMARK  132  A    between atoms: _316  and  _317
REMARK  133  A    between atoms: _319  and  _321
REMARK  134  A    between atoms: _321  and  _322
REMARK  135  A    between atoms: _325  and  _327
REMARK  136  A    between atoms: _327  and  _328
REMARK  137  A    between atoms: _327  and  _330
REMARK  138  A    between atoms: _330  and  _331
REMARK  139  A    between atoms: _334  and  _336
REMARK  140  A    between atoms: _336  and  _337
REMARK  141  A    between atoms: _336  and  _339
REMARK  142  A    between atoms: _339  and  _340
REMARK  143  A    between atoms: _343  and  _345
REMARK  144  A    between atoms: _345  and  _346
REMARK  145  A    between atoms: _345  and  _348
REMARK  146  A    between atoms: _348  and  _349
REMARK  147  A    between atoms: _352  and  _354
REMARK  148  A    between atoms: _354  and  _355
REMARK  149  A    between atoms: _354  and  _357
REMARK  150  A    between atoms: _360  and  _362
REMARK  151  A    between atoms: _362  and  _363
REMARK  152  A    between atoms: _362  and  _365
REMARK  153  A    between atoms: _365  and  _366
REMARK  154  A    between atoms: _366  and  _367
REMARK  155  A    between atoms: _367  and  _368
REMARK  156  A    between atoms: _368  and  _369
REMARK  157  A    between atoms: _373  and  _375
REMARK  158  A    between atoms: _375  and  _376
REMARK  159  A    between atoms: _375  and  _378
REMARK  160  A    between atoms: _378  and  _379
REMARK  161  A    between atoms: _379  and  _380
REMARK  162  A    between atoms: _382  and  _384
REMARK  163  A    between atoms: _384  and  _385
REMARK  164  A    between atoms: _384  and  _387
REMARK  165  A    between atoms: _387  and  _388
REMARK  166  A    between atoms: _391  and  _393
REMARK  167  A    between atoms: _393  and  _394
REMARK  168  A    between atoms: _396  and  _398
REMARK  169  A    between atoms: _398  and  _399
REMARK  170  A    between atoms: _401  and  _403
REMARK  171  A    between atoms: _403  and  _404
REMARK  172  A    between atoms: _403  and  _406
REMARK  173  A    between atoms: _406  and  _407
REMARK  174  A    between atoms: _410  and  _412
REMARK  175  A    between atoms: _412  and  _413
REMARK  176  A    between atoms: _415  and  _417
REMARK  177  A    between atoms: _417  and  _418
REMARK  178  A    between atoms: _420  and  _422
REMARK  179  A    between atoms: _422  and  _423
REMARK  180  A    between atoms: _422  and  _425
REMARK  181  A    between atoms: _425  and  _426
REMARK  182  A    between atoms: _432  and  _434
REMARK  183  A    between atoms: _434  and  _435
REMARK  184  A    between atoms: _434  and  _437
REMARK  185  A    between atoms: _437  and  _438
REMARK  186  A    between atoms: _441  and  _443
REMARK  187  A    between atoms: _443  and  _444
REMARK  188  A    between atoms: _443  and  _446
REMARK  189  A    between atoms: _446  and  _447
REMARK  190  A    between atoms: _450  and  _452
REMARK  191  A    between atoms: _452  and  _453
REMARK  192  A    between atoms: _452  and  _455
REMARK  193  A    between atoms: _455  and  _456
REMARK  194  A    between atoms: _460  and  _461
REMARK  195  A    between atoms: _466  and  _468
REMARK  196  A    between atoms: _468  and  _469
REMARK  197  A    between atoms: _468  and  _471
REMARK  198  A    between atoms: _474  and  _476
REMARK  199  A    between atoms: _476  and  _477
REMARK  200  A    between atoms: _476  and  _479
REMARK  201  A    between atoms: _479  and  _480
REMARK  202  A    between atoms: _485  and  _487
REMARK  203  A    between atoms: _487  and  _488
REMARK  204  A    between atoms: _487  and  _490
REMARK  205  A    between atoms: _490  and  _491
REMARK  206  A    between atoms: _494  and  _496
REMARK  207  A    between atoms: _496  and  _497
REMARK  208  A    between atoms: _496  and  _499
REMARK  209  A    between atoms: _499  and  _500
REMARK  210  A    between atoms: _503  and  _505
REMARK  211  A    between atoms: _505  and  _506
REMARK  212  A    between atoms: _508  and  _510
REMARK  213  A    between atoms: _510  and  _511
REMARK  214  A    between atoms: _510  and  _513
REMARK  215  A    between atoms: _513  and  _514
REMARK  216  A    between atoms: _514  and  _515
REMARK  217  A    between atoms: _515  and  _516
REMARK  218  A    between atoms: _525  and  _527
REMARK  219  A    between atoms: _527  and  _528
REMARK  220  A    between atoms: _527  and  _530
REMARK  221  A    between atoms: _530  and  _531
REMARK                            x       y       z     vdW  Elec       q    Type
REMARK                         _______ _______ _______ _____ _____    ______ ____
ROOT
ATOM      1  O   HOH     1      15.185  34.018   5.312  0.00  0.00    +0.000 OA
ENDROOT
TORSDOF 0
REMARK  Name = ../refined-set-2016/2qi6/2qi6_pocket.pdb
REMARK  221 active torsions:
REMARK  status: ('A' for Active; 'I' for Inactive)
REMARK    1  A    between atoms: _1  and  _3
REMARK    2  A    between atoms: _3  and  _4
REMARK    3  A    between atoms: _3  and  _6
REMARK    4  A    between atoms: _6  and  _7
REMARK    5  A    between atoms: _7  and  _8
REMARK    6  A    between atoms: _8  and  _9
REMARK    7  A    between atoms: _18  and  _20
REMARK    8  A    between atoms: _20  and  _21
REMARK    9  A    between atoms: _20  and  _23
REMARK   10  A    between atoms: _23  and  _24
REMARK   11  A    between atoms: _27  and  _29
REMARK   12  A    between atoms: _29  and  _30
REMARK   13  A    between atoms: _29  and  _32
REMARK   14  A    between atoms: _32  and  _33
REMARK   15  A    between atoms: _36  and  _38
REMARK   16  A    between atoms: _38  and  _39
REMARK   17  A    between atoms: _38  and  _41
REMARK   18  A    between atoms: _41  and  _42
REMARK   19  A    between atoms: _45  and  _47
REMARK   20  A    between atoms: _47  and  _48
REMARK   21  A    between atoms: _47  and  _50
REMARK   22  A    between atoms: _50  and  _51
REMARK   23  A    between atoms: _54  and  _56
REMARK   24  A    between atoms: _56  and  _57
REMARK   25  A    between atoms: _59  and  _61
REMARK   26  A    between atoms: _61  and  _62
REMARK   27  A    between atoms: _65  and  _67
REMARK   28  A    between atoms: _67  and  _68
REMARK   29  A    between atoms: _67  and  _70
REMARK   30  A    between atoms: _70  and  _71
REMARK   31  A    between atoms: _74  and  _76
REMARK   32  A    between atoms: _76  and  _77
REMARK   33  A    between atoms: _76  and  _79
REMARK   34  A    between atoms: _79  and  _80
REMARK   35  A    between atoms: _83  and  _85
REMARK   36  A    between atoms: _85  and  _86
REMARK   37  A    between atoms: _85  and  _88
REMARK   38  A    between atoms: _88  and  _89
REMARK   39  A    between atoms: _92  and  _94
REMARK   40  A    between atoms: _94  and  _95
REMARK   41  A    between atoms: _94  and  _97
REMARK   42  A    between atoms: _100  and  _102
REMARK   43  A    between atoms: _102  and  _103
REMARK   44  A    between atoms: _102  and  _105
REMARK   45  A    between atoms: _105  and  _106
REMARK   46  A    between atoms: _106  and  _107
REMARK   47  A    between atoms: _107  and  _108
REMARK   48  A    between atoms: _108  and  _109
REMARK   49  A    between atoms: _113  and  _115
REMARK   50  A    between atoms: _115  and  _116
REMARK   51  A    between atoms: _115  and  _118
REMARK   52  A    between atoms: _118  and  _119
REMARK   53  A    between atoms: _119  and  _120
REMARK   54  A    between atoms: _122  and  _124
REMARK   55  A    between atoms: _124  and  _125
REMARK   56  A    between atoms: _124  and  _127
REMARK   57  A    between atoms: _127  and  _128
REMARK   58  A    between atoms: _131  and  _133
REMARK   59  A    between atoms: _133  and  _134
REMARK   60  A    between atoms: _136  and  _138
REMARK   61  A    between atoms: _138  and  _139
REMARK   62  A    between atoms: _141  and  _143
REMARK   63  A    between atoms: _143  and  _144
REMARK   64  A    between atoms: _143  and  _146
REMARK   65  A    between atoms: _146  and  _147
REMARK   66  A    between atoms: _150  and  _152
REMARK   67  A    between atoms: _152  and  _153
REMARK   68  A    between atoms: _155  and  _157
REMARK   69  A    between atoms: _157  and  _158
REMARK   70  A    between atoms: _160  and  _162
REMARK   71  A    between atoms: _162  and  _163
REMARK   72  A    between atoms: _162  and  _165
REMARK   73  A    between atoms: _165  and  _166
REMARK   74  A    between atoms: _169  and  _171
REMARK   75  A    between atoms: _171  and  _172
REMARK   76  A    between atoms: _171  and  _174
REMARK   77  A    between atoms: _177  and  _179
REMARK   78  A    between atoms: _179  and  _180
REMARK   79  A    between atoms: _179  and  _182
REMARK   80  A    between atoms: _182  and  _183
REMARK   81  A    between atoms: _186  and  _188
REMARK   82  A    between atoms: _188  and  _189
REMARK   83  A    between atoms: _188  and  _191
REMARK   84  A    between atoms: _191  and  _192
REMARK   85  A    between atoms: _196  and  _197
REMARK   86  A    between atoms: _202  and  _204
REMARK   87  A    between atoms: _204  and  _205
REMARK   88  A    between atoms: _204  and  _207
REMARK   89  A    between atoms: _210  and  _212
REMARK   90  A    between atoms: _212  and  _213
REMARK   91  A    between atoms: _212  and  _215
REMARK   92  A    between atoms: _215  and  _216
REMARK   93  A    between atoms: _221  and  _223
REMARK   94  A    between atoms: _223  and  _224
REMARK   95  A    between atoms: _223  and  _226
REMARK   96  A    between atoms: _226  and  _227
REMARK   97  A    between atoms: _230  and  _232
REMARK   98  A    between atoms: _232  and  _233
REMARK   99  A    between atoms: _232  and  _235
REMARK  100  A    between atoms: _235  and  _236
REMARK  101  A    between atoms: _239  and  _241
REMARK  102  A    between atoms: _241  and  _242
REMARK  103  A    between atoms: _244  and  _246
REMARK  104  A    between atoms: _246  and  _247
REMARK  105  A    between atoms: _246  and  _249
REMARK  106  A    between atoms: _249  and  _250
REMARK  107  A    between atoms: _250  and  _251
REMARK  108  A    between atoms: _251  and  _252
REMARK  109  A    between atoms: _261  and  _263
REMARK  110  A    between atoms: _263  and  _264
REMARK  111  A    between atoms: _263  and  _266
REMARK  112  A    between atoms: _266  and  _267
REMARK  113  A    between atoms: _267  and  _268
REMARK  114  A    between atoms: _268  and  _269
REMARK  115  A    between atoms: _278  and  _280
REMARK  116  A    between atoms: _280  and  _281
REMARK  117  A    between atoms: _280  and  _283
REMARK  118  A    between atoms: _283  and  _284
REMARK  119  A    between atoms: _287  and  _289
REMARK  120  A    between atoms: _289  and  _290
REMARK  121  A    between atoms: _289  and  _292
REMARK  122  A    between atoms: _292  and  _293
REMARK  123  A    between atoms: _296  and  _298
REMARK  124  A    between atoms: _298  and  _299
REMARK  125  A    between atoms: _298  and  _301
REMARK  126  A    between atoms: _301  and  _302
REMARK  127  A    between atoms: _305  and  _307
REMARK  128  A    between atoms: _307  and  _308
REMARK  129  A    between atoms: _307  and  _310
REMARK  130  A    between atoms: _310  and  _311
REMARK  131  A    between atoms: _314  and  _316
REMARK  132  A    between atoms: _316  and  _317
REMARK  133  A    between atoms: _319  and  _321
REMARK  134  A    between atoms: _321  and  _322
REMARK  135  A    between atoms: _325  and  _327
REMARK  136  A    between atoms: _327  and  _328
REMARK  137  A    between atoms: _327  and  _330
REMARK  138  A    between atoms: _330  and  _331
REMARK  139  A    between atoms: _334  and  _336
REMARK  140  A    between atoms: _336  and  _337
REMARK  141  A    between atoms: _336  and  _339
REMARK  142  A    between atoms: _339  and  _340
REMARK  143  A    between atoms: _343  and  _345
REMARK  144  A    between atoms: _345  and  _346
REMARK  145  A    between atoms: _345  and  _348
REMARK  146  A    between atoms: _348  and  _349
REMARK  147  A    between atoms: _352  and  _354
REMARK  148  A    between atoms: _354  and  _355
REMARK  149  A    between atoms: _354  and  _357
REMARK  150  A    between atoms: _360  and  _362
REMARK  151  A    between atoms: _362  and  _363
REMARK  152  A    between atoms: _362  and  _365
REMARK  153  A    between atoms: _365  and  _366
REMARK  154  A    between atoms: _366  and  _367
REMARK  155  A    between atoms: _367  and  _368
REMARK  156  A    between atoms: _368  and  _369
REMARK  157  A    between atoms: _373  and  _375
REMARK  158  A    between atoms: _375  and  _376
REMARK  159  A    between atoms: _375  and  _378
REMARK  160  A    between atoms: _378  and  _379
REMARK  161  A    between atoms: _379  and  _380
REMARK  162  A    between atoms: _382  and  _384
REMARK  163  A    between atoms: _384  and  _385
REMARK  164  A    between atoms: _384  and  _387
REMARK  165  A    between atoms: _387  and  _388
REMARK  166  A    between atoms: _391  and  _393
REMARK  167  A    between atoms: _393  and  _394
REMARK  168  A    between atoms: _396  and  _398
REMARK  169  A    between atoms: _398  and  _399
REMARK  170  A    between atoms: _401  and  _403
REMARK  171  A    between atoms: _403  and  _404
REMARK  172  A    between atoms: _403  and  _406
REMARK  173  A    between atoms: _406  and  _407
REMARK  174  A    between atoms: _410  and  _412
REMARK  175  A    between atoms: _412  and  _413
REMARK  176  A    between atoms: _415  and  _417
REMARK  177  A    between atoms: _417  and  _418
REMARK  178  A    between atoms: _420  and  _422
REMARK  179  A    between atoms: _422  and  _423
REMARK  180  A    between atoms: _422  and  _425
REMARK  181  A    between atoms: _425  and  _426
REMARK  182  A    between atoms: _432  and  _434
REMARK  183  A    between atoms: _434  and  _435
REMARK  184  A    between atoms: _434  and  _437
REMARK  185  A    between atoms: _437  and  _438
REMARK  186  A    between atoms: _441  and  _443
REMARK  187  A    between atoms: _443  and  _444
REMARK  188  A    between atoms: _443  and  _446
REMARK  189  A    between atoms: _446  and  _447
REMARK  190  A    between atoms: _450  and  _452
REMARK  191  A    between atoms: _452  and  _453
REMARK  192  A    between atoms: _452  and  _455
REMARK  193  A    between atoms: _455  and  _456
REMARK  194  A    between atoms: _460  and  _461
REMARK  195  A    between atoms: _466  and  _468
REMARK  196  A    between atoms: _468  and  _469
REMARK  197  A    between atoms: _468  and  _471
REMARK  198  A    between atoms: _474  and  _476
REMARK  199  A    between atoms: _476  and  _477
REMARK  200  A    between atoms: _476  and  _479
REMARK  201  A    between atoms: _479  and  _480
REMARK  202  A    between atoms: _485  and  _487
REMARK  203  A    between atoms: _487  and  _488
REMARK  204  A    between atoms: _487  and  _490
REMARK  205  A    between atoms: _490  and  _491
REMARK  206  A    between atoms: _494  and  _496
REMARK  207  A    between atoms: _496  and  _497
REMARK  208  A    between atoms: _496  and  _499
REMARK  209  A    between atoms: _499  and  _500
REMARK  210  A    between atoms: _503  and  _505
REMARK  211  A    between atoms: _505  and  _506
REMARK  212  A    between atoms: _508  and  _510
REMARK  213  A    between atoms: _510  and  _511
REMARK  214  A    between atoms: _510  and  _513
REMARK  215  A    between atoms: _513  and  _514
REMARK  216  A    between atoms: _514  and  _515
REMARK  217  A    between atoms: _515  and  _516
REMARK  218  A    between atoms: _525  and  _527
REMARK  219  A    between atoms: _527  and  _528
REMARK  220  A    between atoms: _527  and  _530
REMARK  221  A    between atoms: _530  and  _531
REMARK                            x       y       z     vdW  Elec       q    Type
REMARK                         _______ _______ _______ _____ _____    ______ ____
ROOT
ATOM      1  O   HOH     1      20.729  34.429  21.896  0.00  0.00    +0.000 OA
ENDROOT
TORSDOF 0
REMARK  Name = ../refined-set-2016/2qi6/2qi6_pocket.pdb
REMARK  221 active torsions:
REMARK  status: ('A' for Active; 'I' for Inactive)
REMARK    1  A    between atoms: _1  and  _3
REMARK    2  A    between atoms: _3  and  _4
REMARK    3  A    between atoms: _3  and  _6
REMARK    4  A    between atoms: _6  and  _7
REMARK    5  A    between atoms: _7  and  _8
REMARK    6  A    between atoms: _8  and  _9
REMARK    7  A    between atoms: _18  and  _20
REMARK    8  A    between atoms: _20  and  _21
REMARK    9  A    between atoms: _20  and  _23
REMARK   10  A    between atoms: _23  and  _24
REMARK   11  A    between atoms: _27  and  _29
REMARK   12  A    between atoms: _29  and  _30
REMARK   13  A    between atoms: _29  and  _32
REMARK   14  A    between atoms: _32  and  _33
REMARK   15  A    between atoms: _36  and  _38
REMARK   16  A    between atoms: _38  and  _39
REMARK   17  A    between atoms: _38  and  _41
REMARK   18  A    between atoms: _41  and  _42
REMARK   19  A    between atoms: _45  and  _47
REMARK   20  A    between atoms: _47  and  _48
REMARK   21  A    between atoms: _47  and  _50
REMARK   22  A    between atoms: _50  and  _51
REMARK   23  A    between atoms: _54  and  _56
REMARK   24  A    between atoms: _56  and  _57
REMARK   25  A    between atoms: _59  and  _61
REMARK   26  A    between atoms: _61  and  _62
REMARK   27  A    between atoms: _65  and  _67
REMARK   28  A    between atoms: _67  and  _68
REMARK   29  A    between atoms: _67  and  _70
REMARK   30  A    between atoms: _70  and  _71
REMARK   31  A    between atoms: _74  and  _76
REMARK   32  A    between atoms: _76  and  _77
REMARK   33  A    between atoms: _76  and  _79
REMARK   34  A    between atoms: _79  and  _80
REMARK   35  A    between atoms: _83  and  _85
REMARK   36  A    between atoms: _85  and  _86
REMARK   37  A    between atoms: _85  and  _88
REMARK   38  A    between atoms: _88  and  _89
REMARK   39  A    between atoms: _92  and  _94
REMARK   40  A    between atoms: _94  and  _95
REMARK   41  A    between atoms: _94  and  _97
REMARK   42  A    between atoms: _100  and  _102
REMARK   43  A    between atoms: _102  and  _103
REMARK   44  A    between atoms: _102  and  _105
REMARK   45  A    between atoms: _105  and  _106
REMARK   46  A    between atoms: _106  and  _107
REMARK   47  A    between atoms: _107  and  _108
REMARK   48  A    between atoms: _108  and  _109
REMARK   49  A    between atoms: _113  and  _115
REMARK   50  A    between atoms: _115  and  _116
REMARK   51  A    between atoms: _115  and  _118
REMARK   52  A    between atoms: _118  and  _119
REMARK   53  A    between atoms: _119  and  _120
REMARK   54  A    between atoms: _122  and  _124
REMARK   55  A    between atoms: _124  and  _125
REMARK   56  A    between atoms: _124  and  _127
REMARK   57  A    between atoms: _127  and  _128
REMARK   58  A    between atoms: _131  and  _133
REMARK   59  A    between atoms: _133  and  _134
REMARK   60  A    between atoms: _136  and  _138
REMARK   61  A    between atoms: _138  and  _139
REMARK   62  A    between atoms: _141  and  _143
REMARK   63  A    between atoms: _143  and  _144
REMARK   64  A    between atoms: _143  and  _146
REMARK   65  A    between atoms: _146  and  _147
REMARK   66  A    between atoms: _150  and  _152
REMARK   67  A    between atoms: _152  and  _153
REMARK   68  A    between atoms: _155  and  _157
REMARK   69  A    between atoms: _157  and  _158
REMARK   70  A    between atoms: _160  and  _162
REMARK   71  A    between atoms: _162  and  _163
REMARK   72  A    between atoms: _162  and  _165
REMARK   73  A    between atoms: _165  and  _166
REMARK   74  A    between atoms: _169  and  _171
REMARK   75  A    between atoms: _171  and  _172
REMARK   76  A    between atoms: _171  and  _174
REMARK   77  A    between atoms: _177  and  _179
REMARK   78  A    between atoms: _179  and  _180
REMARK   79  A    between atoms: _179  and  _182
REMARK   80  A    between atoms: _182  and  _183
REMARK   81  A    between atoms: _186  and  _188
REMARK   82  A    between atoms: _188  and  _189
REMARK   83  A    between atoms: _188  and  _191
REMARK   84  A    between atoms: _191  and  _192
REMARK   85  A    between atoms: _196  and  _197
REMARK   86  A    between atoms: _202  and  _204
REMARK   87  A    between atoms: _204  and  _205
REMARK   88  A    between atoms: _204  and  _207
REMARK   89  A    between atoms: _210  and  _212
REMARK   90  A    between atoms: _212  and  _213
REMARK   91  A    between atoms: _212  and  _215
REMARK   92  A    between atoms: _215  and  _216
REMARK   93  A    between atoms: _221  and  _223
REMARK   94  A    between atoms: _223  and  _224
REMARK   95  A    between atoms: _223  and  _226
REMARK   96  A    between atoms: _226  and  _227
REMARK   97  A    between atoms: _230  and  _232
REMARK   98  A    between atoms: _232  and  _233
REMARK   99  A    between atoms: _232  and  _235
REMARK  100  A    between atoms: _235  and  _236
REMARK  101  A    between atoms: _239  and  _241
REMARK  102  A    between atoms: _241  and  _242
REMARK  103  A    between atoms: _244  and  _246
REMARK  104  A    between atoms: _246  and  _247
REMARK  105  A    between atoms: _246  and  _249
REMARK  106  A    between atoms: _249  and  _250
REMARK  107  A    between atoms: _250  and  _251
REMARK  108  A    between atoms: _251  and  _252
REMARK  109  A    between atoms: _261  and  _263
REMARK  110  A    between atoms: _263  and  _264
REMARK  111  A    between atoms: _263  and  _266
REMARK  112  A    between atoms: _266  and  _267
REMARK  113  A    between atoms: _267  and  _268
REMARK  114  A    between atoms: _268  and  _269
REMARK  115  A    between atoms: _278  and  _280
REMARK  116  A    between atoms: _280  and  _281
REMARK  117  A    between atoms: _280  and  _283
REMARK  118  A    between atoms: _283  and  _284
REMARK  119  A    between atoms: _287  and  _289
REMARK  120  A    between atoms: _289  and  _290
REMARK  121  A    between atoms: _289  and  _292
REMARK  122  A    between atoms: _292  and  _293
REMARK  123  A    between atoms: _296  and  _298
REMARK  124  A    between atoms: _298  and  _299
REMARK  125  A    between atoms: _298  and  _301
REMARK  126  A    between atoms: _301  and  _302
REMARK  127  A    between atoms: _305  and  _307
REMARK  128  A    between atoms: _307  and  _308
REMARK  129  A    between atoms: _307  and  _310
REMARK  130  A    between atoms: _310  and  _311
REMARK  131  A    between atoms: _314  and  _316
REMARK  132  A    between atoms: _316  and  _317
REMARK  133  A    between atoms: _319  and  _321
REMARK  134  A    between atoms: _321  and  _322
REMARK  135  A    between atoms: _325  and  _327
REMARK  136  A    between atoms: _327  and  _328
REMARK  137  A    between atoms: _327  and  _330
REMARK  138  A    between atoms: _330  and  _331
REMARK  139  A    between atoms: _334  and  _336
REMARK  140  A    between atoms: _336  and  _337
REMARK  141  A    between atoms: _336  and  _339
REMARK  142  A    between atoms: _339  and  _340
REMARK  143  A    between atoms: _343  and  _345
REMARK  144  A    between atoms: _345  and  _346
REMARK  145  A    between atoms: _345  and  _348
REMARK  146  A    between atoms: _348  and  _349
REMARK  147  A    between atoms: _352  and  _354
REMARK  148  A    between atoms: _354  and  _355
REMARK  149  A    between atoms: _354  and  _357
REMARK  150  A    between atoms: _360  and  _362
REMARK  151  A    between atoms: _362  and  _363
REMARK  152  A    between atoms: _362  and  _365
REMARK  153  A    between atoms: _365  and  _366
REMARK  154  A    between atoms: _366  and  _367
REMARK  155  A    between atoms: _367  and  _368
REMARK  156  A    between atoms: _368  and  _369
REMARK  157  A    between atoms: _373  and  _375
REMARK  158  A    between atoms: _375  and  _376
REMARK  159  A    between atoms: _375  and  _378
REMARK  160  A    between atoms: _378  and  _379
REMARK  161  A    between atoms: _379  and  _380
REMARK  162  A    between atoms: _382  and  _384
REMARK  163  A    between atoms: _384  and  _385
REMARK  164  A    between atoms: _384  and  _387
REMARK  165  A    between atoms: _387  and  _388
REMARK  166  A    between atoms: _391  and  _393
REMARK  167  A    between atoms: _393  and  _394
REMARK  168  A    between atoms: _396  and  _398
REMARK  169  A    between atoms: _398  and  _399
REMARK  170  A    between atoms: _401  and  _403
REMARK  171  A    between atoms: _403  and  _404
REMARK  172  A    between atoms: _403  and  _406
REMARK  173  A    between atoms: _406  and  _407
REMARK  174  A    between atoms: _410  and  _412
REMARK  175  A    between atoms: _412  and  _413
REMARK  176  A    between atoms: _415  and  _417
REMARK  177  A    between atoms: _417  and  _418
REMARK  178  A    between atoms: _420  and  _422
REMARK  179  A    between atoms: _422  and  _423
REMARK  180  A    between atoms: _422  and  _425
REMARK  181  A    between atoms: _425  and  _426
REMARK  182  A    between atoms: _432  and  _434
REMARK  183  A    between atoms: _434  and  _435
REMARK  184  A    between atoms: _434  and  _437
REMARK  185  A    between atoms: _437  and  _438
REMARK  186  A    between atoms: _441  and  _443
REMARK  187  A    between atoms: _443  and  _444
REMARK  188  A    between atoms: _443  and  _446
REMARK  189  A    between atoms: _446  and  _447
REMARK  190  A    between atoms: _450  and  _452
REMARK  191  A    between atoms: _452  and  _453
REMARK  192  A    between atoms: _452  and  _455
REMARK  193  A    between atoms: _455  and  _456
REMARK  194  A    between atoms: _460  and  _461
REMARK  195  A    between atoms: _466  and  _468
REMARK  196  A    between atoms: _468  and  _469
REMARK  197  A    between atoms: _468  and  _471
REMARK  198  A    between atoms: _474  and  _476
REMARK  199  A    between atoms: _476  and  _477
REMARK  200  A    between atoms: _476  and  _479
REMARK  201  A    between atoms: _479  and  _480
REMARK  202  A    between atoms: _485  and  _487
REMARK  203  A    between atoms: _487  and  _488
REMARK  204  A    between atoms: _487  and  _490
REMARK  205  A    between atoms: _490  and  _491
REMARK  206  A    between atoms: _494  and  _496
REMARK  207  A    between atoms: _496  and  _497
REMARK  208  A    between atoms: _496  and  _499
REMARK  209  A    between atoms: _499  and  _500
REMARK  210  A    between atoms: _503  and  _505
REMARK  211  A    between atoms: _505  and  _506
REMARK  212  A    between atoms: _508  and  _510
REMARK  213  A    between atoms: _510  and  _511
REMARK  214  A    between atoms: _510  and  _513
REMARK  215  A    between atoms: _513  and  _514
REMARK  216  A    between atoms: _514  and  _515
REMARK  217  A    between atoms: _515  and  _516
REMARK  218  A    between atoms: _525  and  _527
REMARK  219  A    between atoms: _527  and  _528
REMARK  220  A    between atoms: _527  and  _530
REMARK  221  A    between atoms: _530  and  _531
REMARK                            x       y       z     vdW  Elec       q    Type
REMARK                         _______ _______ _______ _____ _____    ______ ____
ROOT
ATOM      1  O   HOH     1      18.679  34.622  19.512  0.00  0.00    +0.000 OA
ENDROOT
TORSDOF 0
REMARK  Name = ../refined-set-2016/2qi6/2qi6_pocket.pdb
REMARK  221 active torsions:
REMARK  status: ('A' for Active; 'I' for Inactive)
REMARK    1  A    between atoms: _1  and  _3
REMARK    2  A    between atoms: _3  and  _4
REMARK    3  A    between atoms: _3  and  _6
REMARK    4  A    between atoms: _6  and  _7
REMARK    5  A    between atoms: _7  and  _8
REMARK    6  A    between atoms: _8  and  _9
REMARK    7  A    between atoms: _18  and  _20
REMARK    8  A    between atoms: _20  and  _21
REMARK    9  A    between atoms: _20  and  _23
REMARK   10  A    between atoms: _23  and  _24
REMARK   11  A    between atoms: _27  and  _29
REMARK   12  A    between atoms: _29  and  _30
REMARK   13  A    between atoms: _29  and  _32
REMARK   14  A    between atoms: _32  and  _33
REMARK   15  A    between atoms: _36  and  _38
REMARK   16  A    between atoms: _38  and  _39
REMARK   17  A    between atoms: _38  and  _41
REMARK   18  A    between atoms: _41  and  _42
REMARK   19  A    between atoms: _45  and  _47
REMARK   20  A    between atoms: _47  and  _48
REMARK   21  A    between atoms: _47  and  _50
REMARK   22  A    between atoms: _50  and  _51
REMARK   23  A    between atoms: _54  and  _56
REMARK   24  A    between atoms: _56  and  _57
REMARK   25  A    between atoms: _59  and  _61
REMARK   26  A    between atoms: _61  and  _62
REMARK   27  A    between atoms: _65  and  _67
REMARK   28  A    between atoms: _67  and  _68
REMARK   29  A    between atoms: _67  and  _70
REMARK   30  A    between atoms: _70  and  _71
REMARK   31  A    between atoms: _74  and  _76
REMARK   32  A    between atoms: _76  and  _77
REMARK   33  A    between atoms: _76  and  _79
REMARK   34  A    between atoms: _79  and  _80
REMARK   35  A    between atoms: _83  and  _85
REMARK   36  A    between atoms: _85  and  _86
REMARK   37  A    between atoms: _85  and  _88
REMARK   38  A    between atoms: _88  and  _89
REMARK   39  A    between atoms: _92  and  _94
REMARK   40  A    between atoms: _94  and  _95
REMARK   41  A    between atoms: _94  and  _97
REMARK   42  A    between atoms: _100  and  _102
REMARK   43  A    between atoms: _102  and  _103
REMARK   44  A    between atoms: _102  and  _105
REMARK   45  A    between atoms: _105  and  _106
REMARK   46  A    between atoms: _106  and  _107
REMARK   47  A    between atoms: _107  and  _108
REMARK   48  A    between atoms: _108  and  _109
REMARK   49  A    between atoms: _113  and  _115
REMARK   50  A    between atoms: _115  and  _116
REMARK   51  A    between atoms: _115  and  _118
REMARK   52  A    between atoms: _118  and  _119
REMARK   53  A    between atoms: _119  and  _120
REMARK   54  A    between atoms: _122  and  _124
REMARK   55  A    between atoms: _124  and  _125
REMARK   56  A    between atoms: _124  and  _127
REMARK   57  A    between atoms: _127  and  _128
REMARK   58  A    between atoms: _131  and  _133
REMARK   59  A    between atoms: _133  and  _134
REMARK   60  A    between atoms: _136  and  _138
REMARK   61  A    between atoms: _138  and  _139
REMARK   62  A    between atoms: _141  and  _143
REMARK   63  A    between atoms: _143  and  _144
REMARK   64  A    between atoms: _143  and  _146
REMARK   65  A    between atoms: _146  and  _147
REMARK   66  A    between atoms: _150  and  _152
REMARK   67  A    between atoms: _152  and  _153
REMARK   68  A    between atoms: _155  and  _157
REMARK   69  A    between atoms: _157  and  _158
REMARK   70  A    between atoms: _160  and  _162
REMARK   71  A    between atoms: _162  and  _163
REMARK   72  A    between atoms: _162  and  _165
REMARK   73  A    between atoms: _165  and  _166
REMARK   74  A    between atoms: _169  and  _171
REMARK   75  A    between atoms: _171  and  _172
REMARK   76  A    between atoms: _171  and  _174
REMARK   77  A    between atoms: _177  and  _179
REMARK   78  A    between atoms: _179  and  _180
REMARK   79  A    between atoms: _179  and  _182
REMARK   80  A    between atoms: _182  and  _183
REMARK   81  A    between atoms: _186  and  _188
REMARK   82  A    between atoms: _188  and  _189
REMARK   83  A    between atoms: _188  and  _191
REMARK   84  A    between atoms: _191  and  _192
REMARK   85  A    between atoms: _196  and  _197
REMARK   86  A    between atoms: _202  and  _204
REMARK   87  A    between atoms: _204  and  _205
REMARK   88  A    between atoms: _204  and  _207
REMARK   89  A    between atoms: _210  and  _212
REMARK   90  A    between atoms: _212  and  _213
REMARK   91  A    between atoms: _212  and  _215
REMARK   92  A    between atoms: _215  and  _216
REMARK   93  A    between atoms: _221  and  _223
REMARK   94  A    between atoms: _223  and  _224
REMARK   95  A    between atoms: _223  and  _226
REMARK   96  A    between atoms: _226  and  _227
REMARK   97  A    between atoms: _230  and  _232
REMARK   98  A    between atoms: _232  and  _233
REMARK   99  A    between atoms: _232  and  _235
REMARK  100  A    between atoms: _235  and  _236
REMARK  101  A    between atoms: _239  and  _241
REMARK  102  A    between atoms: _241  and  _242
REMARK  103  A    between atoms: _244  and  _246
REMARK  104  A    between atoms: _246  and  _247
REMARK  105  A    between atoms: _246  and  _249
REMARK  106  A    between atoms: _249  and  _250
REMARK  107  A    between atoms: _250  and  _251
REMARK  108  A    between atoms: _251  and  _252
REMARK  109  A    between atoms: _261  and  _263
REMARK  110  A    between atoms: _263  and  _264
REMARK  111  A    between atoms: _263  and  _266
REMARK  112  A    between atoms: _266  and  _267
REMARK  113  A    between atoms: _267  and  _268
REMARK  114  A    between atoms: _268  and  _269
REMARK  115  A    between atoms: _278  and  _280
REMARK  116  A    between atoms: _280  and  _281
REMARK  117  A    between atoms: _280  and  _283
REMARK  118  A    between atoms: _283  and  _284
REMARK  119  A    between atoms: _287  and  _289
REMARK  120  A    between atoms: _289  and  _290
REMARK  121  A    between atoms: _289  and  _292
REMARK  122  A    between atoms: _292  and  _293
REMARK  123  A    between atoms: _296  and  _298
REMARK  124  A    between atoms: _298  and  _299
REMARK  125  A    between atoms: _298  and  _301
REMARK  126  A    between atoms: _301  and  _302
REMARK  127  A    between atoms: _305  and  _307
REMARK  128  A    between atoms: _307  and  _308
REMARK  129  A    between atoms: _307  and  _310
REMARK  130  A    between atoms: _310  and  _311
REMARK  131  A    between atoms: _314  and  _316
REMARK  132  A    between atoms: _316  and  _317
REMARK  133  A    between atoms: _319  and  _321
REMARK  134  A    between atoms: _321  and  _322
REMARK  135  A    between atoms: _325  and  _327
REMARK  136  A    between atoms: _327  and  _328
REMARK  137  A    between atoms: _327  and  _330
REMARK  138  A    between atoms: _330  and  _331
REMARK  139  A    between atoms: _334  and  _336
REMARK  140  A    between atoms: _336  and  _337
REMARK  141  A    between atoms: _336  and  _339
REMARK  142  A    between atoms: _339  and  _340
REMARK  143  A    between atoms: _343  and  _345
REMARK  144  A    between atoms: _345  and  _346
REMARK  145  A    between atoms: _345  and  _348
REMARK  146  A    between atoms: _348  and  _349
REMARK  147  A    between atoms: _352  and  _354
REMARK  148  A    between atoms: _354  and  _355
REMARK  149  A    between atoms: _354  and  _357
REMARK  150  A    between atoms: _360  and  _362
REMARK  151  A    between atoms: _362  and  _363
REMARK  152  A    between atoms: _362  and  _365
REMARK  153  A    between atoms: _365  and  _366
REMARK  154  A    between atoms: _366  and  _367
REMARK  155  A    between atoms: _367  and  _368
REMARK  156  A    between atoms: _368  and  _369
REMARK  157  A    between atoms: _373  and  _375
REMARK  158  A    between atoms: _375  and  _376
REMARK  159  A    between atoms: _375  and  _378
REMARK  160  A    between atoms: _378  and  _379
REMARK  161  A    between atoms: _379  and  _380
REMARK  162  A    between atoms: _382  and  _384
REMARK  163  A    between atoms: _384  and  _385
REMARK  164  A    between atoms: _384  and  _387
REMARK  165  A    between atoms: _387  and  _388
REMARK  166  A    between atoms: _391  and  _393
REMARK  167  A    between atoms: _393  and  _394
REMARK  168  A    between atoms: _396  and  _398
REMARK  169  A    between atoms: _398  and  _399
REMARK  170  A    between atoms: _401  and  _403
REMARK  171  A    between atoms: _403  and  _404
REMARK  172  A    between atoms: _403  and  _406
REMARK  173  A    between atoms: _406  and  _407
REMARK  174  A    between atoms: _410  and  _412
REMARK  175  A    between atoms: _412  and  _413
REMARK  176  A    between atoms: _415  and  _417
REMARK  177  A    between atoms: _417  and  _418
REMARK  178  A    between atoms: _420  and  _422
REMARK  179  A    between atoms: _422  and  _423
REMARK  180  A    between atoms: _422  and  _425
REMARK  181  A    between atoms: _425  and  _426
REMARK  182  A    between atoms: _432  and  _434
REMARK  183  A    between atoms: _434  and  _435
REMARK  184  A    between atoms: _434  and  _437
REMARK  185  A    between atoms: _437  and  _438
REMARK  186  A    between atoms: _441  and  _443
REMARK  187  A    between atoms: _443  and  _444
REMARK  188  A    between atoms: _443  and  _446
REMARK  189  A    between atoms: _446  and  _447
REMARK  190  A    between atoms: _450  and  _452
REMARK  191  A    between atoms: _452  and  _453
REMARK  192  A    between atoms: _452  and  _455
REMARK  193  A    between atoms: _455  and  _456
REMARK  194  A    between atoms: _460  and  _461
REMARK  195  A    between atoms: _466  and  _468
REMARK  196  A    between atoms: _468  and  _469
REMARK  197  A    between atoms: _468  and  _471
REMARK  198  A    between atoms: _474  and  _476
REMARK  199  A    between atoms: _476  and  _477
REMARK  200  A    between atoms: _476  and  _479
REMARK  201  A    between atoms: _479  and  _480
REMARK  202  A    between atoms: _485  and  _487
REMARK  203  A    between atoms: _487  and  _488
REMARK  204  A    between atoms: _487  and  _490
REMARK  205  A    between atoms: _490  and  _491
REMARK  206  A    between atoms: _494  and  _496
REMARK  207  A    between atoms: _496  and  _497
REMARK  208  A    between atoms: _496  and  _499
REMARK  209  A    between atoms: _499  and  _500
REMARK  210  A    between atoms: _503  and  _505
REMARK  211  A    between atoms: _505  and  _506
REMARK  212  A    between atoms: _508  and  _510
REMARK  213  A    between atoms: _510  and  _511
REMARK  214  A    between atoms: _510  and  _513
REMARK  215  A    between atoms: _513  and  _514
REMARK  216  A    between atoms: _514  and  _515
REMARK  217  A    between atoms: _515  and  _516
REMARK  218  A    between atoms: _525  and  _527
REMARK  219  A    between atoms: _527  and  _528
REMARK  220  A    between atoms: _527  and  _530
REMARK  221  A    between atoms: _530  and  _531
REMARK                            x       y       z     vdW  Elec       q    Type
REMARK                         _______ _______ _______ _____ _____    ______ ____
ROOT
ATOM      1  O   HOH     1      17.605  40.510  16.207  0.00  0.00    +0.000 OA
ENDROOT
TORSDOF 0
REMARK  Name = ../refined-set-2016/2qi6/2qi6_pocket.pdb
REMARK  221 active torsions:
REMARK  status: ('A' for Active; 'I' for Inactive)
REMARK    1  A    between atoms: _1  and  _3
REMARK    2  A    between atoms: _3  and  _4
REMARK    3  A    between atoms: _3  and  _6
REMARK    4  A    between atoms: _6  and  _7
REMARK    5  A    between atoms: _7  and  _8
REMARK    6  A    between atoms: _8  and  _9
REMARK    7  A    between atoms: _18  and  _20
REMARK    8  A    between atoms: _20  and  _21
REMARK    9  A    between atoms: _20  and  _23
REMARK   10  A    between atoms: _23  and  _24
REMARK   11  A    between atoms: _27  and  _29
REMARK   12  A    between atoms: _29  and  _30
REMARK   13  A    between atoms: _29  and  _32
REMARK   14  A    between atoms: _32  and  _33
REMARK   15  A    between atoms: _36  and  _38
REMARK   16  A    between atoms: _38  and  _39
REMARK   17  A    between atoms: _38  and  _41
REMARK   18  A    between atoms: _41  and  _42
REMARK   19  A    between atoms: _45  and  _47
REMARK   20  A    between atoms: _47  and  _48
REMARK   21  A    between atoms: _47  and  _50
REMARK   22  A    between atoms: _50  and  _51
REMARK   23  A    between atoms: _54  and  _56
REMARK   24  A    between atoms: _56  and  _57
REMARK   25  A    between atoms: _59  and  _61
REMARK   26  A    between atoms: _61  and  _62
REMARK   27  A    between atoms: _65  and  _67
REMARK   28  A    between atoms: _67  and  _68
REMARK   29  A    between atoms: _67  and  _70
REMARK   30  A    between atoms: _70  and  _71
REMARK   31  A    between atoms: _74  and  _76
REMARK   32  A    between atoms: _76  and  _77
REMARK   33  A    between atoms: _76  and  _79
REMARK   34  A    between atoms: _79  and  _80
REMARK   35  A    between atoms: _83  and  _85
REMARK   36  A    between atoms: _85  and  _86
REMARK   37  A    between atoms: _85  and  _88
REMARK   38  A    between atoms: _88  and  _89
REMARK   39  A    between atoms: _92  and  _94
REMARK   40  A    between atoms: _94  and  _95
REMARK   41  A    between atoms: _94  and  _97
REMARK   42  A    between atoms: _100  and  _102
REMARK   43  A    between atoms: _102  and  _103
REMARK   44  A    between atoms: _102  and  _105
REMARK   45  A    between atoms: _105  and  _106
REMARK   46  A    between atoms: _106  and  _107
REMARK   47  A    between atoms: _107  and  _108
REMARK   48  A    between atoms: _108  and  _109
REMARK   49  A    between atoms: _113  and  _115
REMARK   50  A    between atoms: _115  and  _116
REMARK   51  A    between atoms: _115  and  _118
REMARK   52  A    between atoms: _118  and  _119
REMARK   53  A    between atoms: _119  and  _120
REMARK   54  A    between atoms: _122  and  _124
REMARK   55  A    between atoms: _124  and  _125
REMARK   56  A    between atoms: _124  and  _127
REMARK   57  A    between atoms: _127  and  _128
REMARK   58  A    between atoms: _131  and  _133
REMARK   59  A    between atoms: _133  and  _134
REMARK   60  A    between atoms: _136  and  _138
REMARK   61  A    between atoms: _138  and  _139
REMARK   62  A    between atoms: _141  and  _143
REMARK   63  A    between atoms: _143  and  _144
REMARK   64  A    between atoms: _143  and  _146
REMARK   65  A    between atoms: _146  and  _147
REMARK   66  A    between atoms: _150  and  _152
REMARK   67  A    between atoms: _152  and  _153
REMARK   68  A    between atoms: _155  and  _157
REMARK   69  A    between atoms: _157  and  _158
REMARK   70  A    between atoms: _160  and  _162
REMARK   71  A    between atoms: _162  and  _163
REMARK   72  A    between atoms: _162  and  _165
REMARK   73  A    between atoms: _165  and  _166
REMARK   74  A    between atoms: _169  and  _171
REMARK   75  A    between atoms: _171  and  _172
REMARK   76  A    between atoms: _171  and  _174
REMARK   77  A    between atoms: _177  and  _179
REMARK   78  A    between atoms: _179  and  _180
REMARK   79  A    between atoms: _179  and  _182
REMARK   80  A    between atoms: _182  and  _183
REMARK   81  A    between atoms: _186  and  _188
REMARK   82  A    between atoms: _188  and  _189
REMARK   83  A    between atoms: _188  and  _191
REMARK   84  A    between atoms: _191  and  _192
REMARK   85  A    between atoms: _196  and  _197
REMARK   86  A    between atoms: _202  and  _204
REMARK   87  A    between atoms: _204  and  _205
REMARK   88  A    between atoms: _204  and  _207
REMARK   89  A    between atoms: _210  and  _212
REMARK   90  A    between atoms: _212  and  _213
REMARK   91  A    between atoms: _212  and  _215
REMARK   92  A    between atoms: _215  and  _216
REMARK   93  A    between atoms: _221  and  _223
REMARK   94  A    between atoms: _223  and  _224
REMARK   95  A    between atoms: _223  and  _226
REMARK   96  A    between atoms: _226  and  _227
REMARK   97  A    between atoms: _230  and  _232
REMARK   98  A    between atoms: _232  and  _233
REMARK   99  A    between atoms: _232  and  _235
REMARK  100  A    between atoms: _235  and  _236
REMARK  101  A    between atoms: _239  and  _241
REMARK  102  A    between atoms: _241  and  _242
REMARK  103  A    between atoms: _244  and  _246
REMARK  104  A    between atoms: _246  and  _247
REMARK  105  A    between atoms: _246  and  _249
REMARK  106  A    between atoms: _249  and  _250
REMARK  107  A    between atoms: _250  and  _251
REMARK  108  A    between atoms: _251  and  _252
REMARK  109  A    between atoms: _261  and  _263
REMARK  110  A    between atoms: _263  and  _264
REMARK  111  A    between atoms: _263  and  _266
REMARK  112  A    between atoms: _266  and  _267
REMARK  113  A    between atoms: _267  and  _268
REMARK  114  A    between atoms: _268  and  _269
REMARK  115  A    between atoms: _278  and  _280
REMARK  116  A    between atoms: _280  and  _281
REMARK  117  A    between atoms: _280  and  _283
REMARK  118  A    between atoms: _283  and  _284
REMARK  119  A    between atoms: _287  and  _289
REMARK  120  A    between atoms: _289  and  _290
REMARK  121  A    between atoms: _289  and  _292
REMARK  122  A    between atoms: _292  and  _293
REMARK  123  A    between atoms: _296  and  _298
REMARK  124  A    between atoms: _298  and  _299
REMARK  125  A    between atoms: _298  and  _301
REMARK  126  A    between atoms: _301  and  _302
REMARK  127  A    between atoms: _305  and  _307
REMARK  128  A    between atoms: _307  and  _308
REMARK  129  A    between atoms: _307  and  _310
REMARK  130  A    between atoms: _310  and  _311
REMARK  131  A    between atoms: _314  and  _316
REMARK  132  A    between atoms: _316  and  _317
REMARK  133  A    between atoms: _319  and  _321
REMARK  134  A    between atoms: _321  and  _322
REMARK  135  A    between atoms: _325  and  _327
REMARK  136  A    between atoms: _327  and  _328
REMARK  137  A    between atoms: _327  and  _330
REMARK  138  A    between atoms: _330  and  _331
REMARK  139  A    between atoms: _334  and  _336
REMARK  140  A    between atoms: _336  and  _337
REMARK  141  A    between atoms: _336  and  _339
REMARK  142  A    between atoms: _339  and  _340
REMARK  143  A    between atoms: _343  and  _345
REMARK  144  A    between atoms: _345  and  _346
REMARK  145  A    between atoms: _345  and  _348
REMARK  146  A    between atoms: _348  and  _349
REMARK  147  A    between atoms: _352  and  _354
REMARK  148  A    between atoms: _354  and  _355
REMARK  149  A    between atoms: _354  and  _357
REMARK  150  A    between atoms: _360  and  _362
REMARK  151  A    between atoms: _362  and  _363
REMARK  152  A    between atoms: _362  and  _365
REMARK  153  A    between atoms: _365  and  _366
REMARK  154  A    between atoms: _366  and  _367
REMARK  155  A    between atoms: _367  and  _368
REMARK  156  A    between atoms: _368  and  _369
REMARK  157  A    between atoms: _373  and  _375
REMARK  158  A    between atoms: _375  and  _376
REMARK  159  A    between atoms: _375  and  _378
REMARK  160  A    between atoms: _378  and  _379
REMARK  161  A    between atoms: _379  and  _380
REMARK  162  A    between atoms: _382  and  _384
REMARK  163  A    between atoms: _384  and  _385
REMARK  164  A    between atoms: _384  and  _387
REMARK  165  A    between atoms: _387  and  _388
REMARK  166  A    between atoms: _391  and  _393
REMARK  167  A    between atoms: _393  and  _394
REMARK  168  A    between atoms: _396  and  _398
REMARK  169  A    between atoms: _398  and  _399
REMARK  170  A    between atoms: _401  and  _403
REMARK  171  A    between atoms: _403  and  _404
REMARK  172  A    between atoms: _403  and  _406
REMARK  173  A    between atoms: _406  and  _407
REMARK  174  A    between atoms: _410  and  _412
REMARK  175  A    between atoms: _412  and  _413
REMARK  176  A    between atoms: _415  and  _417
REMARK  177  A    between atoms: _417  and  _418
REMARK  178  A    between atoms: _420  and  _422
REMARK  179  A    between atoms: _422  and  _423
REMARK  180  A    between atoms: _422  and  _425
REMARK  181  A    between atoms: _425  and  _426
REMARK  182  A    between atoms: _432  and  _434
REMARK  183  A    between atoms: _434  and  _435
REMARK  184  A    between atoms: _434  and  _437
REMARK  185  A    between atoms: _437  and  _438
REMARK  186  A    between atoms: _441  and  _443
REMARK  187  A    between atoms: _443  and  _444
REMARK  188  A    between atoms: _443  and  _446
REMARK  189  A    between atoms: _446  and  _447
REMARK  190  A    between atoms: _450  and  _452
REMARK  191  A    between atoms: _452  and  _453
REMARK  192  A    between atoms: _452  and  _455
REMARK  193  A    between atoms: _455  and  _456
REMARK  194  A    between atoms: _460  and  _461
REMARK  195  A    between atoms: _466  and  _468
REMARK  196  A    between atoms: _468  and  _469
REMARK  197  A    between atoms: _468  and  _471
REMARK  198  A    between atoms: _474  and  _476
REMARK  199  A    between atoms: _476  and  _477
REMARK  200  A    between atoms: _476  and  _479
REMARK  201  A    between atoms: _479  and  _480
REMARK  202  A    between atoms: _485  and  _487
REMARK  203  A    between atoms: _487  and  _488
REMARK  204  A    between atoms: _487  and  _490
REMARK  205  A    between atoms: _490  and  _491
REMARK  206  A    between atoms: _494  and  _496
REMARK  207  A    between atoms: _496  and  _497
REMARK  208  A    between atoms: _496  and  _499
REMARK  209  A    between atoms: _499  and  _500
REMARK  210  A    between atoms: _503  and  _505
REMARK  211  A    between atoms: _505  and  _506
REMARK  212  A    between atoms: _508  and  _510
REMARK  213  A    between atoms: _510  and  _511
REMARK  214  A    between atoms: _510  and  _513
REMARK  215  A    between atoms: _513  and  _514
REMARK  216  A    between atoms: _514  and  _515
REMARK  217  A    between atoms: _515  and  _516
REMARK  218  A    between atoms: _525  and  _527
REMARK  219  A    between atoms: _527  and  _528
REMARK  220  A    between atoms: _527  and  _530
REMARK  221  A    between atoms: _530  and  _531
REMARK                            x       y       z     vdW  Elec       q    Type
REMARK                         _______ _______ _______ _____ _____    ______ ____
ROOT
ATOM      1  O   HOH     1       9.191  34.870  21.341  0.00  0.00    +0.000 OA
ENDROOT
TORSDOF 0
REMARK  Name = ../refined-set-2016/2qi6/2qi6_pocket.pdb
REMARK  221 active torsions:
REMARK  status: ('A' for Active; 'I' for Inactive)
REMARK    1  A    between atoms: _1  and  _3
REMARK    2  A    between atoms: _3  and  _4
REMARK    3  A    between atoms: _3  and  _6
REMARK    4  A    between atoms: _6  and  _7
REMARK    5  A    between atoms: _7  and  _8
REMARK    6  A    between atoms: _8  and  _9
REMARK    7  A    between atoms: _18  and  _20
REMARK    8  A    between atoms: _20  and  _21
REMARK    9  A    between atoms: _20  and  _23
REMARK   10  A    between atoms: _23  and  _24
REMARK   11  A    between atoms: _27  and  _29
REMARK   12  A    between atoms: _29  and  _30
REMARK   13  A    between atoms: _29  and  _32
REMARK   14  A    between atoms: _32  and  _33
REMARK   15  A    between atoms: _36  and  _38
REMARK   16  A    between atoms: _38  and  _39
REMARK   17  A    between atoms: _38  and  _41
REMARK   18  A    between atoms: _41  and  _42
REMARK   19  A    between atoms: _45  and  _47
REMARK   20  A    between atoms: _47  and  _48
REMARK   21  A    between atoms: _47  and  _50
REMARK   22  A    between atoms: _50  and  _51
REMARK   23  A    between atoms: _54  and  _56
REMARK   24  A    between atoms: _56  and  _57
REMARK   25  A    between atoms: _59  and  _61
REMARK   26  A    between atoms: _61  and  _62
REMARK   27  A    between atoms: _65  and  _67
REMARK   28  A    between atoms: _67  and  _68
REMARK   29  A    between atoms: _67  and  _70
REMARK   30  A    between atoms: _70  and  _71
REMARK   31  A    between atoms: _74  and  _76
REMARK   32  A    between atoms: _76  and  _77
REMARK   33  A    between atoms: _76  and  _79
REMARK   34  A    between atoms: _79  and  _80
REMARK   35  A    between atoms: _83  and  _85
REMARK   36  A    between atoms: _85  and  _86
REMARK   37  A    between atoms: _85  and  _88
REMARK   38  A    between atoms: _88  and  _89
REMARK   39  A    between atoms: _92  and  _94
REMARK   40  A    between atoms: _94  and  _95
REMARK   41  A    between atoms: _94  and  _97
REMARK   42  A    between atoms: _100  and  _102
REMARK   43  A    between atoms: _102  and  _103
REMARK   44  A    between atoms: _102  and  _105
REMARK   45  A    between atoms: _105  and  _106
REMARK   46  A    between atoms: _106  and  _107
REMARK   47  A    between atoms: _107  and  _108
REMARK   48  A    between atoms: _108  and  _109
REMARK   49  A    between atoms: _113  and  _115
REMARK   50  A    between atoms: _115  and  _116
REMARK   51  A    between atoms: _115  and  _118
REMARK   52  A    between atoms: _118  and  _119
REMARK   53  A    between atoms: _119  and  _120
REMARK   54  A    between atoms: _122  and  _124
REMARK   55  A    between atoms: _124  and  _125
REMARK   56  A    between atoms: _124  and  _127
REMARK   57  A    between atoms: _127  and  _128
REMARK   58  A    between atoms: _131  and  _133
REMARK   59  A    between atoms: _133  and  _134
REMARK   60  A    between atoms: _136  and  _138
REMARK   61  A    between atoms: _138  and  _139
REMARK   62  A    between atoms: _141  and  _143
REMARK   63  A    between atoms: _143  and  _144
REMARK   64  A    between atoms: _143  and  _146
REMARK   65  A    between atoms: _146  and  _147
REMARK   66  A    between atoms: _150  and  _152
REMARK   67  A    between atoms: _152  and  _153
REMARK   68  A    between atoms: _155  and  _157
REMARK   69  A    between atoms: _157  and  _158
REMARK   70  A    between atoms: _160  and  _162
REMARK   71  A    between atoms: _162  and  _163
REMARK   72  A    between atoms: _162  and  _165
REMARK   73  A    between atoms: _165  and  _166
REMARK   74  A    between atoms: _169  and  _171
REMARK   75  A    between atoms: _171  and  _172
REMARK   76  A    between atoms: _171  and  _174
REMARK   77  A    between atoms: _177  and  _179
REMARK   78  A    between atoms: _179  and  _180
REMARK   79  A    between atoms: _179  and  _182
REMARK   80  A    between atoms: _182  and  _183
REMARK   81  A    between atoms: _186  and  _188
REMARK   82  A    between atoms: _188  and  _189
REMARK   83  A    between atoms: _188  and  _191
REMARK   84  A    between atoms: _191  and  _192
REMARK   85  A    between atoms: _196  and  _197
REMARK   86  A    between atoms: _202  and  _204
REMARK   87  A    between atoms: _204  and  _205
REMARK   88  A    between atoms: _204  and  _207
REMARK   89  A    between atoms: _210  and  _212
REMARK   90  A    between atoms: _212  and  _213
REMARK   91  A    between atoms: _212  and  _215
REMARK   92  A    between atoms: _215  and  _216
REMARK   93  A    between atoms: _221  and  _223
REMARK   94  A    between atoms: _223  and  _224
REMARK   95  A    between atoms: _223  and  _226
REMARK   96  A    between atoms: _226  and  _227
REMARK   97  A    between atoms: _230  and  _232
REMARK   98  A    between atoms: _232  and  _233
REMARK   99  A    between atoms: _232  and  _235
REMARK  100  A    between atoms: _235  and  _236
REMARK  101  A    between atoms: _239  and  _241
REMARK  102  A    between atoms: _241  and  _242
REMARK  103  A    between atoms: _244  and  _246
REMARK  104  A    between atoms: _246  and  _247
REMARK  105  A    between atoms: _246  and  _249
REMARK  106  A    between atoms: _249  and  _250
REMARK  107  A    between atoms: _250  and  _251
REMARK  108  A    between atoms: _251  and  _252
REMARK  109  A    between atoms: _261  and  _263
REMARK  110  A    between atoms: _263  and  _264
REMARK  111  A    between atoms: _263  and  _266
REMARK  112  A    between atoms: _266  and  _267
REMARK  113  A    between atoms: _267  and  _268
REMARK  114  A    between atoms: _268  and  _269
REMARK  115  A    between atoms: _278  and  _280
REMARK  116  A    between atoms: _280  and  _281
REMARK  117  A    between atoms: _280  and  _283
REMARK  118  A    between atoms: _283  and  _284
REMARK  119  A    between atoms: _287  and  _289
REMARK  120  A    between atoms: _289  and  _290
REMARK  121  A    between atoms: _289  and  _292
REMARK  122  A    between atoms: _292  and  _293
REMARK  123  A    between atoms: _296  and  _298
REMARK  124  A    between atoms: _298  and  _299
REMARK  125  A    between atoms: _298  and  _301
REMARK  126  A    between atoms: _301  and  _302
REMARK  127  A    between atoms: _305  and  _307
REMARK  128  A    between atoms: _307  and  _308
REMARK  129  A    between atoms: _307  and  _310
REMARK  130  A    between atoms: _310  and  _311
REMARK  131  A    between atoms: _314  and  _316
REMARK  132  A    between atoms: _316  and  _317
REMARK  133  A    between atoms: _319  and  _321
REMARK  134  A    between atoms: _321  and  _322
REMARK  135  A    between atoms: _325  and  _327
REMARK  136  A    between atoms: _327  and  _328
REMARK  137  A    between atoms: _327  and  _330
REMARK  138  A    between atoms: _330  and  _331
REMARK  139  A    between atoms: _334  and  _336
REMARK  140  A    between atoms: _336  and  _337
REMARK  141  A    between atoms: _336  and  _339
REMARK  142  A    between atoms: _339  and  _340
REMARK  143  A    between atoms: _343  and  _345
REMARK  144  A    between atoms: _345  and  _346
REMARK  145  A    between atoms: _345  and  _348
REMARK  146  A    between atoms: _348  and  _349
REMARK  147  A    between atoms: _352  and  _354
REMARK  148  A    between atoms: _354  and  _355
REMARK  149  A    between atoms: _354  and  _357
REMARK  150  A    between atoms: _360  and  _362
REMARK  151  A    between atoms: _362  and  _363
REMARK  152  A    between atoms: _362  and  _365
REMARK  153  A    between atoms: _365  and  _366
REMARK  154  A    between atoms: _366  and  _367
REMARK  155  A    between atoms: _367  and  _368
REMARK  156  A    between atoms: _368  and  _369
REMARK  157  A    between atoms: _373  and  _375
REMARK  158  A    between atoms: _375  and  _376
REMARK  159  A    between atoms: _375  and  _378
REMARK  160  A    between atoms: _378  and  _379
REMARK  161  A    between atoms: _379  and  _380
REMARK  162  A    between atoms: _382  and  _384
REMARK  163  A    between atoms: _384  and  _385
REMARK  164  A    between atoms: _384  and  _387
REMARK  165  A    between atoms: _387  and  _388
REMARK  166  A    between atoms: _391  and  _393
REMARK  167  A    between atoms: _393  and  _394
REMARK  168  A    between atoms: _396  and  _398
REMARK  169  A    between atoms: _398  and  _399
REMARK  170  A    between atoms: _401  and  _403
REMARK  171  A    between atoms: _403  and  _404
REMARK  172  A    between atoms: _403  and  _406
REMARK  173  A    between atoms: _406  and  _407
REMARK  174  A    between atoms: _410  and  _412
REMARK  175  A    between atoms: _412  and  _413
REMARK  176  A    between atoms: _415  and  _417
REMARK  177  A    between atoms: _417  and  _418
REMARK  178  A    between atoms: _420  and  _422
REMARK  179  A    between atoms: _422  and  _423
REMARK  180  A    between atoms: _422  and  _425
REMARK  181  A    between atoms: _425  and  _426
REMARK  182  A    between atoms: _432  and  _434
REMARK  183  A    between atoms: _434  and  _435
REMARK  184  A    between atoms: _434  and  _437
REMARK  185  A    between atoms: _437  and  _438
REMARK  186  A    between atoms: _441  and  _443
REMARK  187  A    between atoms: _443  and  _444
REMARK  188  A    between atoms: _443  and  _446
REMARK  189  A    between atoms: _446  and  _447
REMARK  190  A    between atoms: _450  and  _452
REMARK  191  A    between atoms: _452  and  _453
REMARK  192  A    between atoms: _452  and  _455
REMARK  193  A    between atoms: _455  and  _456
REMARK  194  A    between atoms: _460  and  _461
REMARK  195  A    between atoms: _466  and  _468
REMARK  196  A    between atoms: _468  and  _469
REMARK  197  A    between atoms: _468  and  _471
REMARK  198  A    between atoms: _474  and  _476
REMARK  199  A    between atoms: _476  and  _477
REMARK  200  A    between atoms: _476  and  _479
REMARK  201  A    between atoms: _479  and  _480
REMARK  202  A    between atoms: _485  and  _487
REMARK  203  A    between atoms: _487  and  _488
REMARK  204  A    between atoms: _487  and  _490
REMARK  205  A    between atoms: _490  and  _491
REMARK  206  A    between atoms: _494  and  _496
REMARK  207  A    between atoms: _496  and  _497
REMARK  208  A    between atoms: _496  and  _499
REMARK  209  A    between atoms: _499  and  _500
REMARK  210  A    between atoms: _503  and  _505
REMARK  211  A    between atoms: _505  and  _506
REMARK  212  A    between atoms: _508  and  _510
REMARK  213  A    between atoms: _510  and  _511
REMARK  214  A    between atoms: _510  and  _513
REMARK  215  A    between atoms: _513  and  _514
REMARK  216  A    between atoms: _514  and  _515
REMARK  217  A    between atoms: _515  and  _516
REMARK  218  A    between atoms: _525  and  _527
REMARK  219  A    between atoms: _527  and  _528
REMARK  220  A    between atoms: _527  and  _530
REMARK  221  A    between atoms: _530  and  _531
REMARK                            x       y       z     vdW  Elec       q    Type
REMARK                         _______ _______ _______ _____ _____    ______ ____
ROOT
ATOM      1  O   HOH     1      21.234  37.096  16.083  0.00  0.00    +0.000 OA
ENDROOT
TORSDOF 0
REMARK  Name = ../refined-set-2016/2qi6/2qi6_pocket.pdb
REMARK  221 active torsions:
REMARK  status: ('A' for Active; 'I' for Inactive)
REMARK    1  A    between atoms: _1  and  _3
REMARK    2  A    between atoms: _3  and  _4
REMARK    3  A    between atoms: _3  and  _6
REMARK    4  A    between atoms: _6  and  _7
REMARK    5  A    between atoms: _7  and  _8
REMARK    6  A    between atoms: _8  and  _9
REMARK    7  A    between atoms: _18  and  _20
REMARK    8  A    between atoms: _20  and  _21
REMARK    9  A    between atoms: _20  and  _23
REMARK   10  A    between atoms: _23  and  _24
REMARK   11  A    between atoms: _27  and  _29
REMARK   12  A    between atoms: _29  and  _30
REMARK   13  A    between atoms: _29  and  _32
REMARK   14  A    between atoms: _32  and  _33
REMARK   15  A    between atoms: _36  and  _38
REMARK   16  A    between atoms: _38  and  _39
REMARK   17  A    between atoms: _38  and  _41
REMARK   18  A    between atoms: _41  and  _42
REMARK   19  A    between atoms: _45  and  _47
REMARK   20  A    between atoms: _47  and  _48
REMARK   21  A    between atoms: _47  and  _50
REMARK   22  A    between atoms: _50  and  _51
REMARK   23  A    between atoms: _54  and  _56
REMARK   24  A    between atoms: _56  and  _57
REMARK   25  A    between atoms: _59  and  _61
REMARK   26  A    between atoms: _61  and  _62
REMARK   27  A    between atoms: _65  and  _67
REMARK   28  A    between atoms: _67  and  _68
REMARK   29  A    between atoms: _67  and  _70
REMARK   30  A    between atoms: _70  and  _71
REMARK   31  A    between atoms: _74  and  _76
REMARK   32  A    between atoms: _76  and  _77
REMARK   33  A    between atoms: _76  and  _79
REMARK   34  A    between atoms: _79  and  _80
REMARK   35  A    between atoms: _83  and  _85
REMARK   36  A    between atoms: _85  and  _86
REMARK   37  A    between atoms: _85  and  _88
REMARK   38  A    between atoms: _88  and  _89
REMARK   39  A    between atoms: _92  and  _94
REMARK   40  A    between atoms: _94  and  _95
REMARK   41  A    between atoms: _94  and  _97
REMARK   42  A    between atoms: _100  and  _102
REMARK   43  A    between atoms: _102  and  _103
REMARK   44  A    between atoms: _102  and  _105
REMARK   45  A    between atoms: _105  and  _106
REMARK   46  A    between atoms: _106  and  _107
REMARK   47  A    between atoms: _107  and  _108
REMARK   48  A    between atoms: _108  and  _109
REMARK   49  A    between atoms: _113  and  _115
REMARK   50  A    between atoms: _115  and  _116
REMARK   51  A    between atoms: _115  and  _118
REMARK   52  A    between atoms: _118  and  _119
REMARK   53  A    between atoms: _119  and  _120
REMARK   54  A    between atoms: _122  and  _124
REMARK   55  A    between atoms: _124  and  _125
REMARK   56  A    between atoms: _124  and  _127
REMARK   57  A    between atoms: _127  and  _128
REMARK   58  A    between atoms: _131  and  _133
REMARK   59  A    between atoms: _133  and  _134
REMARK   60  A    between atoms: _136  and  _138
REMARK   61  A    between atoms: _138  and  _139
REMARK   62  A    between atoms: _141  and  _143
REMARK   63  A    between atoms: _143  and  _144
REMARK   64  A    between atoms: _143  and  _146
REMARK   65  A    between atoms: _146  and  _147
REMARK   66  A    between atoms: _150  and  _152
REMARK   67  A    between atoms: _152  and  _153
REMARK   68  A    between atoms: _155  and  _157
REMARK   69  A    between atoms: _157  and  _158
REMARK   70  A    between atoms: _160  and  _162
REMARK   71  A    between atoms: _162  and  _163
REMARK   72  A    between atoms: _162  and  _165
REMARK   73  A    between atoms: _165  and  _166
REMARK   74  A    between atoms: _169  and  _171
REMARK   75  A    between atoms: _171  and  _172
REMARK   76  A    between atoms: _171  and  _174
REMARK   77  A    between atoms: _177  and  _179
REMARK   78  A    between atoms: _179  and  _180
REMARK   79  A    between atoms: _179  and  _182
REMARK   80  A    between atoms: _182  and  _183
REMARK   81  A    between atoms: _186  and  _188
REMARK   82  A    between atoms: _188  and  _189
REMARK   83  A    between atoms: _188  and  _191
REMARK   84  A    between atoms: _191  and  _192
REMARK   85  A    between atoms: _196  and  _197
REMARK   86  A    between atoms: _202  and  _204
REMARK   87  A    between atoms: _204  and  _205
REMARK   88  A    between atoms: _204  and  _207
REMARK   89  A    between atoms: _210  and  _212
REMARK   90  A    between atoms: _212  and  _213
REMARK   91  A    between atoms: _212  and  _215
REMARK   92  A    between atoms: _215  and  _216
REMARK   93  A    between atoms: _221  and  _223
REMARK   94  A    between atoms: _223  and  _224
REMARK   95  A    between atoms: _223  and  _226
REMARK   96  A    between atoms: _226  and  _227
REMARK   97  A    between atoms: _230  and  _232
REMARK   98  A    between atoms: _232  and  _233
REMARK   99  A    between atoms: _232  and  _235
REMARK  100  A    between atoms: _235  and  _236
REMARK  101  A    between atoms: _239  and  _241
REMARK  102  A    between atoms: _241  and  _242
REMARK  103  A    between atoms: _244  and  _246
REMARK  104  A    between atoms: _246  and  _247
REMARK  105  A    between atoms: _246  and  _249
REMARK  106  A    between atoms: _249  and  _250
REMARK  107  A    between atoms: _250  and  _251
REMARK  108  A    between atoms: _251  and  _252
REMARK  109  A    between atoms: _261  and  _263
REMARK  110  A    between atoms: _263  and  _264
REMARK  111  A    between atoms: _263  and  _266
REMARK  112  A    between atoms: _266  and  _267
REMARK  113  A    between atoms: _267  and  _268
REMARK  114  A    between atoms: _268  and  _269
REMARK  115  A    between atoms: _278  and  _280
REMARK  116  A    between atoms: _280  and  _281
REMARK  117  A    between atoms: _280  and  _283
REMARK  118  A    between atoms: _283  and  _284
REMARK  119  A    between atoms: _287  and  _289
REMARK  120  A    between atoms: _289  and  _290
REMARK  121  A    between atoms: _289  and  _292
REMARK  122  A    between atoms: _292  and  _293
REMARK  123  A    between atoms: _296  and  _298
REMARK  124  A    between atoms: _298  and  _299
REMARK  125  A    between atoms: _298  and  _301
REMARK  126  A    between atoms: _301  and  _302
REMARK  127  A    between atoms: _305  and  _307
REMARK  128  A    between atoms: _307  and  _308
REMARK  129  A    between atoms: _307  and  _310
REMARK  130  A    between atoms: _310  and  _311
REMARK  131  A    between atoms: _314  and  _316
REMARK  132  A    between atoms: _316  and  _317
REMARK  133  A    between atoms: _319  and  _321
REMARK  134  A    between atoms: _321  and  _322
REMARK  135  A    between atoms: _325  and  _327
REMARK  136  A    between atoms: _327  and  _328
REMARK  137  A    between atoms: _327  and  _330
REMARK  138  A    between atoms: _330  and  _331
REMARK  139  A    between atoms: _334  and  _336
REMARK  140  A    between atoms: _336  and  _337
REMARK  141  A    between atoms: _336  and  _339
REMARK  142  A    between atoms: _339  and  _340
REMARK  143  A    between atoms: _343  and  _345
REMARK  144  A    between atoms: _345  and  _346
REMARK  145  A    between atoms: _345  and  _348
REMARK  146  A    between atoms: _348  and  _349
REMARK  147  A    between atoms: _352  and  _354
REMARK  148  A    between atoms: _354  and  _355
REMARK  149  A    between atoms: _354  and  _357
REMARK  150  A    between atoms: _360  and  _362
REMARK  151  A    between atoms: _362  and  _363
REMARK  152  A    between atoms: _362  and  _365
REMARK  153  A    between atoms: _365  and  _366
REMARK  154  A    between atoms: _366  and  _367
REMARK  155  A    between atoms: _367  and  _368
REMARK  156  A    between atoms: _368  and  _369
REMARK  157  A    between atoms: _373  and  _375
REMARK  158  A    between atoms: _375  and  _376
REMARK  159  A    between atoms: _375  and  _378
REMARK  160  A    between atoms: _378  and  _379
REMARK  161  A    between atoms: _379  and  _380
REMARK  162  A    between atoms: _382  and  _384
REMARK  163  A    between atoms: _384  and  _385
REMARK  164  A    between atoms: _384  and  _387
REMARK  165  A    between atoms: _387  and  _388
REMARK  166  A    between atoms: _391  and  _393
REMARK  167  A    between atoms: _393  and  _394
REMARK  168  A    between atoms: _396  and  _398
REMARK  169  A    between atoms: _398  and  _399
REMARK  170  A    between atoms: _401  and  _403
REMARK  171  A    between atoms: _403  and  _404
REMARK  172  A    between atoms: _403  and  _406
REMARK  173  A    between atoms: _406  and  _407
REMARK  174  A    between atoms: _410  and  _412
REMARK  175  A    between atoms: _412  and  _413
REMARK  176  A    between atoms: _415  and  _417
REMARK  177  A    between atoms: _417  and  _418
REMARK  178  A    between atoms: _420  and  _422
REMARK  179  A    between atoms: _422  and  _423
REMARK  180  A    between atoms: _422  and  _425
REMARK  181  A    between atoms: _425  and  _426
REMARK  182  A    between atoms: _432  and  _434
REMARK  183  A    between atoms: _434  and  _435
REMARK  184  A    between atoms: _434  and  _437
REMARK  185  A    between atoms: _437  and  _438
REMARK  186  A    between atoms: _441  and  _443
REMARK  187  A    between atoms: _443  and  _444
REMARK  188  A    between atoms: _443  and  _446
REMARK  189  A    between atoms: _446  and  _447
REMARK  190  A    between atoms: _450  and  _452
REMARK  191  A    between atoms: _452  and  _453
REMARK  192  A    between atoms: _452  and  _455
REMARK  193  A    between atoms: _455  and  _456
REMARK  194  A    between atoms: _460  and  _461
REMARK  195  A    between atoms: _466  and  _468
REMARK  196  A    between atoms: _468  and  _469
REMARK  197  A    between atoms: _468  and  _471
REMARK  198  A    between atoms: _474  and  _476
REMARK  199  A    between atoms: _476  and  _477
REMARK  200  A    between atoms: _476  and  _479
REMARK  201  A    between atoms: _479  and  _480
REMARK  202  A    between atoms: _485  and  _487
REMARK  203  A    between atoms: _487  and  _488
REMARK  204  A    between atoms: _487  and  _490
REMARK  205  A    between atoms: _490  and  _491
REMARK  206  A    between atoms: _494  and  _496
REMARK  207  A    between atoms: _496  and  _497
REMARK  208  A    between atoms: _496  and  _499
REMARK  209  A    between atoms: _499  and  _500
REMARK  210  A    between atoms: _503  and  _505
REMARK  211  A    between atoms: _505  and  _506
REMARK  212  A    between atoms: _508  and  _510
REMARK  213  A    between atoms: _510  and  _511
REMARK  214  A    between atoms: _510  and  _513
REMARK  215  A    between atoms: _513  and  _514
REMARK  216  A    between atoms: _514  and  _515
REMARK  217  A    between atoms: _515  and  _516
REMARK  218  A    between atoms: _525  and  _527
REMARK  219  A    between atoms: _527  and  _528
REMARK  220  A    between atoms: _527  and  _530
REMARK  221  A    between atoms: _530  and  _531
REMARK                            x       y       z     vdW  Elec       q    Type
REMARK                         _______ _______ _______ _____ _____    ______ ____
ROOT
ATOM      1  O   HOH     1      20.120  32.432  23.567  0.00  0.00    +0.000 OA
ENDROOT
TORSDOF 0
REMARK  Name = ../refined-set-2016/2qi6/2qi6_pocket.pdb
REMARK  221 active torsions:
REMARK  status: ('A' for Active; 'I' for Inactive)
REMARK    1  A    between atoms: _1  and  _3
REMARK    2  A    between atoms: _3  and  _4
REMARK    3  A    between atoms: _3  and  _6
REMARK    4  A    between atoms: _6  and  _7
REMARK    5  A    between atoms: _7  and  _8
REMARK    6  A    between atoms: _8  and  _9
REMARK    7  A    between atoms: _18  and  _20
REMARK    8  A    between atoms: _20  and  _21
REMARK    9  A    between atoms: _20  and  _23
REMARK   10  A    between atoms: _23  and  _24
REMARK   11  A    between atoms: _27  and  _29
REMARK   12  A    between atoms: _29  and  _30
REMARK   13  A    between atoms: _29  and  _32
REMARK   14  A    between atoms: _32  and  _33
REMARK   15  A    between atoms: _36  and  _38
REMARK   16  A    between atoms: _38  and  _39
REMARK   17  A    between atoms: _38  and  _41
REMARK   18  A    between atoms: _41  and  _42
REMARK   19  A    between atoms: _45  and  _47
REMARK   20  A    between atoms: _47  and  _48
REMARK   21  A    between atoms: _47  and  _50
REMARK   22  A    between atoms: _50  and  _51
REMARK   23  A    between atoms: _54  and  _56
REMARK   24  A    between atoms: _56  and  _57
REMARK   25  A    between atoms: _59  and  _61
REMARK   26  A    between atoms: _61  and  _62
REMARK   27  A    between atoms: _65  and  _67
REMARK   28  A    between atoms: _67  and  _68
REMARK   29  A    between atoms: _67  and  _70
REMARK   30  A    between atoms: _70  and  _71
REMARK   31  A    between atoms: _74  and  _76
REMARK   32  A    between atoms: _76  and  _77
REMARK   33  A    between atoms: _76  and  _79
REMARK   34  A    between atoms: _79  and  _80
REMARK   35  A    between atoms: _83  and  _85
REMARK   36  A    between atoms: _85  and  _86
REMARK   37  A    between atoms: _85  and  _88
REMARK   38  A    between atoms: _88  and  _89
REMARK   39  A    between atoms: _92  and  _94
REMARK   40  A    between atoms: _94  and  _95
REMARK   41  A    between atoms: _94  and  _97
REMARK   42  A    between atoms: _100  and  _102
REMARK   43  A    between atoms: _102  and  _103
REMARK   44  A    between atoms: _102  and  _105
REMARK   45  A    between atoms: _105  and  _106
REMARK   46  A    between atoms: _106  and  _107
REMARK   47  A    between atoms: _107  and  _108
REMARK   48  A    between atoms: _108  and  _109
REMARK   49  A    between atoms: _113  and  _115
REMARK   50  A    between atoms: _115  and  _116
REMARK   51  A    between atoms: _115  and  _118
REMARK   52  A    between atoms: _118  and  _119
REMARK   53  A    between atoms: _119  and  _120
REMARK   54  A    between atoms: _122  and  _124
REMARK   55  A    between atoms: _124  and  _125
REMARK   56  A    between atoms: _124  and  _127
REMARK   57  A    between atoms: _127  and  _128
REMARK   58  A    between atoms: _131  and  _133
REMARK   59  A    between atoms: _133  and  _134
REMARK   60  A    between atoms: _136  and  _138
REMARK   61  A    between atoms: _138  and  _139
REMARK   62  A    between atoms: _141  and  _143
REMARK   63  A    between atoms: _143  and  _144
REMARK   64  A    between atoms: _143  and  _146
REMARK   65  A    between atoms: _146  and  _147
REMARK   66  A    between atoms: _150  and  _152
REMARK   67  A    between atoms: _152  and  _153
REMARK   68  A    between atoms: _155  and  _157
REMARK   69  A    between atoms: _157  and  _158
REMARK   70  A    between atoms: _160  and  _162
REMARK   71  A    between atoms: _162  and  _163
REMARK   72  A    between atoms: _162  and  _165
REMARK   73  A    between atoms: _165  and  _166
REMARK   74  A    between atoms: _169  and  _171
REMARK   75  A    between atoms: _171  and  _172
REMARK   76  A    between atoms: _171  and  _174
REMARK   77  A    between atoms: _177  and  _179
REMARK   78  A    between atoms: _179  and  _180
REMARK   79  A    between atoms: _179  and  _182
REMARK   80  A    between atoms: _182  and  _183
REMARK   81  A    between atoms: _186  and  _188
REMARK   82  A    between atoms: _188  and  _189
REMARK   83  A    between atoms: _188  and  _191
REMARK   84  A    between atoms: _191  and  _192
REMARK   85  A    between atoms: _196  and  _197
REMARK   86  A    between atoms: _202  and  _204
REMARK   87  A    between atoms: _204  and  _205
REMARK   88  A    between atoms: _204  and  _207
REMARK   89  A    between atoms: _210  and  _212
REMARK   90  A    between atoms: _212  and  _213
REMARK   91  A    between atoms: _212  and  _215
REMARK   92  A    between atoms: _215  and  _216
REMARK   93  A    between atoms: _221  and  _223
REMARK   94  A    between atoms: _223  and  _224
REMARK   95  A    between atoms: _223  and  _226
REMARK   96  A    between atoms: _226  and  _227
REMARK   97  A    between atoms: _230  and  _232
REMARK   98  A    between atoms: _232  and  _233
REMARK   99  A    between atoms: _232  and  _235
REMARK  100  A    between atoms: _235  and  _236
REMARK  101  A    between atoms: _239  and  _241
REMARK  102  A    between atoms: _241  and  _242
REMARK  103  A    between atoms: _244  and  _246
REMARK  104  A    between atoms: _246  and  _247
REMARK  105  A    between atoms: _246  and  _249
REMARK  106  A    between atoms: _249  and  _250
REMARK  107  A    between atoms: _250  and  _251
REMARK  108  A    between atoms: _251  and  _252
REMARK  109  A    between atoms: _261  and  _263
REMARK  110  A    between atoms: _263  and  _264
REMARK  111  A    between atoms: _263  and  _266
REMARK  112  A    between atoms: _266  and  _267
REMARK  113  A    between atoms: _267  and  _268
REMARK  114  A    between atoms: _268  and  _269
REMARK  115  A    between atoms: _278  and  _280
REMARK  116  A    between atoms: _280  and  _281
REMARK  117  A    between atoms: _280  and  _283
REMARK  118  A    between atoms: _283  and  _284
REMARK  119  A    between atoms: _287  and  _289
REMARK  120  A    between atoms: _289  and  _290
REMARK  121  A    between atoms: _289  and  _292
REMARK  122  A    between atoms: _292  and  _293
REMARK  123  A    between atoms: _296  and  _298
REMARK  124  A    between atoms: _298  and  _299
REMARK  125  A    between atoms: _298  and  _301
REMARK  126  A    between atoms: _301  and  _302
REMARK  127  A    between atoms: _305  and  _307
REMARK  128  A    between atoms: _307  and  _308
REMARK  129  A    between atoms: _307  and  _310
REMARK  130  A    between atoms: _310  and  _311
REMARK  131  A    between atoms: _314  and  _316
REMARK  132  A    between atoms: _316  and  _317
REMARK  133  A    between atoms: _319  and  _321
REMARK  134  A    between atoms: _321  and  _322
REMARK  135  A    between atoms: _325  and  _327
REMARK  136  A    between atoms: _327  and  _328
REMARK  137  A    between atoms: _327  and  _330
REMARK  138  A    between atoms: _330  and  _331
REMARK  139  A    between atoms: _334  and  _336
REMARK  140  A    between atoms: _336  and  _337
REMARK  141  A    between atoms: _336  and  _339
REMARK  142  A    between atoms: _339  and  _340
REMARK  143  A    between atoms: _343  and  _345
REMARK  144  A    between atoms: _345  and  _346
REMARK  145  A    between atoms: _345  and  _348
REMARK  146  A    between atoms: _348  and  _349
REMARK  147  A    between atoms: _352  and  _354
REMARK  148  A    between atoms: _354  and  _355
REMARK  149  A    between atoms: _354  and  _357
REMARK  150  A    between atoms: _360  and  _362
REMARK  151  A    between atoms: _362  and  _363
REMARK  152  A    between atoms: _362  and  _365
REMARK  153  A    between atoms: _365  and  _366
REMARK  154  A    between atoms: _366  and  _367
REMARK  155  A    between atoms: _367  and  _368
REMARK  156  A    between atoms: _368  and  _369
REMARK  157  A    between atoms: _373  and  _375
REMARK  158  A    between atoms: _375  and  _376
REMARK  159  A    between atoms: _375  and  _378
REMARK  160  A    between atoms: _378  and  _379
REMARK  161  A    between atoms: _379  and  _380
REMARK  162  A    between atoms: _382  and  _384
REMARK  163  A    between atoms: _384  and  _385
REMARK  164  A    between atoms: _384  and  _387
REMARK  165  A    between atoms: _387  and  _388
REMARK  166  A    between atoms: _391  and  _393
REMARK  167  A    between atoms: _393  and  _394
REMARK  168  A    between atoms: _396  and  _398
REMARK  169  A    between atoms: _398  and  _399
REMARK  170  A    between atoms: _401  and  _403
REMARK  171  A    between atoms: _403  and  _404
REMARK  172  A    between atoms: _403  and  _406
REMARK  173  A    between atoms: _406  and  _407
REMARK  174  A    between atoms: _410  and  _412
REMARK  175  A    between atoms: _412  and  _413
REMARK  176  A    between atoms: _415  and  _417
REMARK  177  A    between atoms: _417  and  _418
REMARK  178  A    between atoms: _420  and  _422
REMARK  179  A    between atoms: _422  and  _423
REMARK  180  A    between atoms: _422  and  _425
REMARK  181  A    between atoms: _425  and  _426
REMARK  182  A    between atoms: _432  and  _434
REMARK  183  A    between atoms: _434  and  _435
REMARK  184  A    between atoms: _434  and  _437
REMARK  185  A    between atoms: _437  and  _438
REMARK  186  A    between atoms: _441  and  _443
REMARK  187  A    between atoms: _443  and  _444
REMARK  188  A    between atoms: _443  and  _446
REMARK  189  A    between atoms: _446  and  _447
REMARK  190  A    between atoms: _450  and  _452
REMARK  191  A    between atoms: _452  and  _453
REMARK  192  A    between atoms: _452  and  _455
REMARK  193  A    between atoms: _455  and  _456
REMARK  194  A    between atoms: _460  and  _461
REMARK  195  A    between atoms: _466  and  _468
REMARK  196  A    between atoms: _468  and  _469
REMARK  197  A    between atoms: _468  and  _471
REMARK  198  A    between atoms: _474  and  _476
REMARK  199  A    between atoms: _476  and  _477
REMARK  200  A    between atoms: _476  and  _479
REMARK  201  A    between atoms: _479  and  _480
REMARK  202  A    between atoms: _485  and  _487
REMARK  203  A    between atoms: _487  and  _488
REMARK  204  A    between atoms: _487  and  _490
REMARK  205  A    between atoms: _490  and  _491
REMARK  206  A    between atoms: _494  and  _496
REMARK  207  A    between atoms: _496  and  _497
REMARK  208  A    between atoms: _496  and  _499
REMARK  209  A    between atoms: _499  and  _500
REMARK  210  A    between atoms: _503  and  _505
REMARK  211  A    between atoms: _505  and  _506
REMARK  212  A    between atoms: _508  and  _510
REMARK  213  A    between atoms: _510  and  _511
REMARK  214  A    between atoms: _510  and  _513
REMARK  215  A    between atoms: _513  and  _514
REMARK  216  A    between atoms: _514  and  _515
REMARK  217  A    between atoms: _515  and  _516
REMARK  218  A    between atoms: _525  and  _527
REMARK  219  A    between atoms: _527  and  _528
REMARK  220  A    between atoms: _527  and  _530
REMARK  221  A    between atoms: _530  and  _531
REMARK                            x       y       z     vdW  Elec       q    Type
REMARK                         _______ _______ _______ _____ _____    ______ ____
ROOT
ATOM      1  O   HOH     1      20.372  36.591  18.776  0.00  0.00    +0.000 OA
ENDROOT
TORSDOF 0
REMARK  Name = ../refined-set-2016/2qi6/2qi6_pocket.pdb
REMARK  221 active torsions:
REMARK  status: ('A' for Active; 'I' for Inactive)
REMARK    1  A    between atoms: _1  and  _3
REMARK    2  A    between atoms: _3  and  _4
REMARK    3  A    between atoms: _3  and  _6
REMARK    4  A    between atoms: _6  and  _7
REMARK    5  A    between atoms: _7  and  _8
REMARK    6  A    between atoms: _8  and  _9
REMARK    7  A    between atoms: _18  and  _20
REMARK    8  A    between atoms: _20  and  _21
REMARK    9  A    between atoms: _20  and  _23
REMARK   10  A    between atoms: _23  and  _24
REMARK   11  A    between atoms: _27  and  _29
REMARK   12  A    between atoms: _29  and  _30
REMARK   13  A    between atoms: _29  and  _32
REMARK   14  A    between atoms: _32  and  _33
REMARK   15  A    between atoms: _36  and  _38
REMARK   16  A    between atoms: _38  and  _39
REMARK   17  A    between atoms: _38  and  _41
REMARK   18  A    between atoms: _41  and  _42
REMARK   19  A    between atoms: _45  and  _47
REMARK   20  A    between atoms: _47  and  _48
REMARK   21  A    between atoms: _47  and  _50
REMARK   22  A    between atoms: _50  and  _51
REMARK   23  A    between atoms: _54  and  _56
REMARK   24  A    between atoms: _56  and  _57
REMARK   25  A    between atoms: _59  and  _61
REMARK   26  A    between atoms: _61  and  _62
REMARK   27  A    between atoms: _65  and  _67
REMARK   28  A    between atoms: _67  and  _68
REMARK   29  A    between atoms: _67  and  _70
REMARK   30  A    between atoms: _70  and  _71
REMARK   31  A    between atoms: _74  and  _76
REMARK   32  A    between atoms: _76  and  _77
REMARK   33  A    between atoms: _76  and  _79
REMARK   34  A    between atoms: _79  and  _80
REMARK   35  A    between atoms: _83  and  _85
REMARK   36  A    between atoms: _85  and  _86
REMARK   37  A    between atoms: _85  and  _88
REMARK   38  A    between atoms: _88  and  _89
REMARK   39  A    between atoms: _92  and  _94
REMARK   40  A    between atoms: _94  and  _95
REMARK   41  A    between atoms: _94  and  _97
REMARK   42  A    between atoms: _100  and  _102
REMARK   43  A    between atoms: _102  and  _103
REMARK   44  A    between atoms: _102  and  _105
REMARK   45  A    between atoms: _105  and  _106
REMARK   46  A    between atoms: _106  and  _107
REMARK   47  A    between atoms: _107  and  _108
REMARK   48  A    between atoms: _108  and  _109
REMARK   49  A    between atoms: _113  and  _115
REMARK   50  A    between atoms: _115  and  _116
REMARK   51  A    between atoms: _115  and  _118
REMARK   52  A    between atoms: _118  and  _119
REMARK   53  A    between atoms: _119  and  _120
REMARK   54  A    between atoms: _122  and  _124
REMARK   55  A    between atoms: _124  and  _125
REMARK   56  A    between atoms: _124  and  _127
REMARK   57  A    between atoms: _127  and  _128
REMARK   58  A    between atoms: _131  and  _133
REMARK   59  A    between atoms: _133  and  _134
REMARK   60  A    between atoms: _136  and  _138
REMARK   61  A    between atoms: _138  and  _139
REMARK   62  A    between atoms: _141  and  _143
REMARK   63  A    between atoms: _143  and  _144
REMARK   64  A    between atoms: _143  and  _146
REMARK   65  A    between atoms: _146  and  _147
REMARK   66  A    between atoms: _150  and  _152
REMARK   67  A    between atoms: _152  and  _153
REMARK   68  A    between atoms: _155  and  _157
REMARK   69  A    between atoms: _157  and  _158
REMARK   70  A    between atoms: _160  and  _162
REMARK   71  A    between atoms: _162  and  _163
REMARK   72  A    between atoms: _162  and  _165
REMARK   73  A    between atoms: _165  and  _166
REMARK   74  A    between atoms: _169  and  _171
REMARK   75  A    between atoms: _171  and  _172
REMARK   76  A    between atoms: _171  and  _174
REMARK   77  A    between atoms: _177  and  _179
REMARK   78  A    between atoms: _179  and  _180
REMARK   79  A    between atoms: _179  and  _182
REMARK   80  A    between atoms: _182  and  _183
REMARK   81  A    between atoms: _186  and  _188
REMARK   82  A    between atoms: _188  and  _189
REMARK   83  A    between atoms: _188  and  _191
REMARK   84  A    between atoms: _191  and  _192
REMARK   85  A    between atoms: _196  and  _197
REMARK   86  A    between atoms: _202  and  _204
REMARK   87  A    between atoms: _204  and  _205
REMARK   88  A    between atoms: _204  and  _207
REMARK   89  A    between atoms: _210  and  _212
REMARK   90  A    between atoms: _212  and  _213
REMARK   91  A    between atoms: _212  and  _215
REMARK   92  A    between atoms: _215  and  _216
REMARK   93  A    between atoms: _221  and  _223
REMARK   94  A    between atoms: _223  and  _224
REMARK   95  A    between atoms: _223  and  _226
REMARK   96  A    between atoms: _226  and  _227
REMARK   97  A    between atoms: _230  and  _232
REMARK   98  A    between atoms: _232  and  _233
REMARK   99  A    between atoms: _232  and  _235
REMARK  100  A    between atoms: _235  and  _236
REMARK  101  A    between atoms: _239  and  _241
REMARK  102  A    between atoms: _241  and  _242
REMARK  103  A    between atoms: _244  and  _246
REMARK  104  A    between atoms: _246  and  _247
REMARK  105  A    between atoms: _246  and  _249
REMARK  106  A    between atoms: _249  and  _250
REMARK  107  A    between atoms: _250  and  _251
REMARK  108  A    between atoms: _251  and  _252
REMARK  109  A    between atoms: _261  and  _263
REMARK  110  A    between atoms: _263  and  _264
REMARK  111  A    between atoms: _263  and  _266
REMARK  112  A    between atoms: _266  and  _267
REMARK  113  A    between atoms: _267  and  _268
REMARK  114  A    between atoms: _268  and  _269
REMARK  115  A    between atoms: _278  and  _280
REMARK  116  A    between atoms: _280  and  _281
REMARK  117  A    between atoms: _280  and  _283
REMARK  118  A    between atoms: _283  and  _284
REMARK  119  A    between atoms: _287  and  _289
REMARK  120  A    between atoms: _289  and  _290
REMARK  121  A    between atoms: _289  and  _292
REMARK  122  A    between atoms: _292  and  _293
REMARK  123  A    between atoms: _296  and  _298
REMARK  124  A    between atoms: _298  and  _299
REMARK  125  A    between atoms: _298  and  _301
REMARK  126  A    between atoms: _301  and  _302
REMARK  127  A    between atoms: _305  and  _307
REMARK  128  A    between atoms: _307  and  _308
REMARK  129  A    between atoms: _307  and  _310
REMARK  130  A    between atoms: _310  and  _311
REMARK  131  A    between atoms: _314  and  _316
REMARK  132  A    between atoms: _316  and  _317
REMARK  133  A    between atoms: _319  and  _321
REMARK  134  A    between atoms: _321  and  _322
REMARK  135  A    between atoms: _325  and  _327
REMARK  136  A    between atoms: _327  and  _328
REMARK  137  A    between atoms: _327  and  _330
REMARK  138  A    between atoms: _330  and  _331
REMARK  139  A    between atoms: _334  and  _336
REMARK  140  A    between atoms: _336  and  _337
REMARK  141  A    between atoms: _336  and  _339
REMARK  142  A    between atoms: _339  and  _340
REMARK  143  A    between atoms: _343  and  _345
REMARK  144  A    between atoms: _345  and  _346
REMARK  145  A    between atoms: _345  and  _348
REMARK  146  A    between atoms: _348  and  _349
REMARK  147  A    between atoms: _352  and  _354
REMARK  148  A    between atoms: _354  and  _355
REMARK  149  A    between atoms: _354  and  _357
REMARK  150  A    between atoms: _360  and  _362
REMARK  151  A    between atoms: _362  and  _363
REMARK  152  A    between atoms: _362  and  _365
REMARK  153  A    between atoms: _365  and  _366
REMARK  154  A    between atoms: _366  and  _367
REMARK  155  A    between atoms: _367  and  _368
REMARK  156  A    between atoms: _368  and  _369
REMARK  157  A    between atoms: _373  and  _375
REMARK  158  A    between atoms: _375  and  _376
REMARK  159  A    between atoms: _375  and  _378
REMARK  160  A    between atoms: _378  and  _379
REMARK  161  A    between atoms: _379  and  _380
REMARK  162  A    between atoms: _382  and  _384
REMARK  163  A    between atoms: _384  and  _385
REMARK  164  A    between atoms: _384  and  _387
REMARK  165  A    between atoms: _387  and  _388
REMARK  166  A    between atoms: _391  and  _393
REMARK  167  A    between atoms: _393  and  _394
REMARK  168  A    between atoms: _396  and  _398
REMARK  169  A    between atoms: _398  and  _399
REMARK  170  A    between atoms: _401  and  _403
REMARK  171  A    between atoms: _403  and  _404
REMARK  172  A    between atoms: _403  and  _406
REMARK  173  A    between atoms: _406  and  _407
REMARK  174  A    between atoms: _410  and  _412
REMARK  175  A    between atoms: _412  and  _413
REMARK  176  A    between atoms: _415  and  _417
REMARK  177  A    between atoms: _417  and  _418
REMARK  178  A    between atoms: _420  and  _422
REMARK  179  A    between atoms: _422  and  _423
REMARK  180  A    between atoms: _422  and  _425
REMARK  181  A    between atoms: _425  and  _426
REMARK  182  A    between atoms: _432  and  _434
REMARK  183  A    between atoms: _434  and  _435
REMARK  184  A    between atoms: _434  and  _437
REMARK  185  A    between atoms: _437  and  _438
REMARK  186  A    between atoms: _441  and  _443
REMARK  187  A    between atoms: _443  and  _444
REMARK  188  A    between atoms: _443  and  _446
REMARK  189  A    between atoms: _446  and  _447
REMARK  190  A    between atoms: _450  and  _452
REMARK  191  A    between atoms: _452  and  _453
REMARK  192  A    between atoms: _452  and  _455
REMARK  193  A    between atoms: _455  and  _456
REMARK  194  A    between atoms: _460  and  _461
REMARK  195  A    between atoms: _466  and  _468
REMARK  196  A    between atoms: _468  and  _469
REMARK  197  A    between atoms: _468  and  _471
REMARK  198  A    between atoms: _474  and  _476
REMARK  199  A    between atoms: _476  and  _477
REMARK  200  A    between atoms: _476  and  _479
REMARK  201  A    between atoms: _479  and  _480
REMARK  202  A    between atoms: _485  and  _487
REMARK  203  A    between atoms: _487  and  _488
REMARK  204  A    between atoms: _487  and  _490
REMARK  205  A    between atoms: _490  and  _491
REMARK  206  A    between atoms: _494  and  _496
REMARK  207  A    between atoms: _496  and  _497
REMARK  208  A    between atoms: _496  and  _499
REMARK  209  A    between atoms: _499  and  _500
REMARK  210  A    between atoms: _503  and  _505
REMARK  211  A    between atoms: _505  and  _506
REMARK  212  A    between atoms: _508  and  _510
REMARK  213  A    between atoms: _510  and  _511
REMARK  214  A    between atoms: _510  and  _513
REMARK  215  A    between atoms: _513  and  _514
REMARK  216  A    between atoms: _514  and  _515
REMARK  217  A    between atoms: _515  and  _516
REMARK  218  A    between atoms: _525  and  _527
REMARK  219  A    between atoms: _527  and  _528
REMARK  220  A    between atoms: _527  and  _530
REMARK  221  A    between atoms: _530  and  _531
REMARK                            x       y       z     vdW  Elec       q    Type
REMARK                         _______ _______ _______ _____ _____    ______ ____
ROOT
ATOM      1  O   HOH     1      14.347  35.012  26.009  0.00  0.00    +0.000 OA
ENDROOT
TORSDOF 0
REMARK  Name = ../refined-set-2016/2qi6/2qi6_pocket.pdb
REMARK  221 active torsions:
REMARK  status: ('A' for Active; 'I' for Inactive)
REMARK    1  A    between atoms: _1  and  _3
REMARK    2  A    between atoms: _3  and  _4
REMARK    3  A    between atoms: _3  and  _6
REMARK    4  A    between atoms: _6  and  _7
REMARK    5  A    between atoms: _7  and  _8
REMARK    6  A    between atoms: _8  and  _9
REMARK    7  A    between atoms: _18  and  _20
REMARK    8  A    between atoms: _20  and  _21
REMARK    9  A    between atoms: _20  and  _23
REMARK   10  A    between atoms: _23  and  _24
REMARK   11  A    between atoms: _27  and  _29
REMARK   12  A    between atoms: _29  and  _30
REMARK   13  A    between atoms: _29  and  _32
REMARK   14  A    between atoms: _32  and  _33
REMARK   15  A    between atoms: _36  and  _38
REMARK   16  A    between atoms: _38  and  _39
REMARK   17  A    between atoms: _38  and  _41
REMARK   18  A    between atoms: _41  and  _42
REMARK   19  A    between atoms: _45  and  _47
REMARK   20  A    between atoms: _47  and  _48
REMARK   21  A    between atoms: _47  and  _50
REMARK   22  A    between atoms: _50  and  _51
REMARK   23  A    between atoms: _54  and  _56
REMARK   24  A    between atoms: _56  and  _57
REMARK   25  A    between atoms: _59  and  _61
REMARK   26  A    between atoms: _61  and  _62
REMARK   27  A    between atoms: _65  and  _67
REMARK   28  A    between atoms: _67  and  _68
REMARK   29  A    between atoms: _67  and  _70
REMARK   30  A    between atoms: _70  and  _71
REMARK   31  A    between atoms: _74  and  _76
REMARK   32  A    between atoms: _76  and  _77
REMARK   33  A    between atoms: _76  and  _79
REMARK   34  A    between atoms: _79  and  _80
REMARK   35  A    between atoms: _83  and  _85
REMARK   36  A    between atoms: _85  and  _86
REMARK   37  A    between atoms: _85  and  _88
REMARK   38  A    between atoms: _88  and  _89
REMARK   39  A    between atoms: _92  and  _94
REMARK   40  A    between atoms: _94  and  _95
REMARK   41  A    between atoms: _94  and  _97
REMARK   42  A    between atoms: _100  and  _102
REMARK   43  A    between atoms: _102  and  _103
REMARK   44  A    between atoms: _102  and  _105
REMARK   45  A    between atoms: _105  and  _106
REMARK   46  A    between atoms: _106  and  _107
REMARK   47  A    between atoms: _107  and  _108
REMARK   48  A    between atoms: _108  and  _109
REMARK   49  A    between atoms: _113  and  _115
REMARK   50  A    between atoms: _115  and  _116
REMARK   51  A    between atoms: _115  and  _118
REMARK   52  A    between atoms: _118  and  _119
REMARK   53  A    between atoms: _119  and  _120
REMARK   54  A    between atoms: _122  and  _124
REMARK   55  A    between atoms: _124  and  _125
REMARK   56  A    between atoms: _124  and  _127
REMARK   57  A    between atoms: _127  and  _128
REMARK   58  A    between atoms: _131  and  _133
REMARK   59  A    between atoms: _133  and  _134
REMARK   60  A    between atoms: _136  and  _138
REMARK   61  A    between atoms: _138  and  _139
REMARK   62  A    between atoms: _141  and  _143
REMARK   63  A    between atoms: _143  and  _144
REMARK   64  A    between atoms: _143  and  _146
REMARK   65  A    between atoms: _146  and  _147
REMARK   66  A    between atoms: _150  and  _152
REMARK   67  A    between atoms: _152  and  _153
REMARK   68  A    between atoms: _155  and  _157
REMARK   69  A    between atoms: _157  and  _158
REMARK   70  A    between atoms: _160  and  _162
REMARK   71  A    between atoms: _162  and  _163
REMARK   72  A    between atoms: _162  and  _165
REMARK   73  A    between atoms: _165  and  _166
REMARK   74  A    between atoms: _169  and  _171
REMARK   75  A    between atoms: _171  and  _172
REMARK   76  A    between atoms: _171  and  _174
REMARK   77  A    between atoms: _177  and  _179
REMARK   78  A    between atoms: _179  and  _180
REMARK   79  A    between atoms: _179  and  _182
REMARK   80  A    between atoms: _182  and  _183
REMARK   81  A    between atoms: _186  and  _188
REMARK   82  A    between atoms: _188  and  _189
REMARK   83  A    between atoms: _188  and  _191
REMARK   84  A    between atoms: _191  and  _192
REMARK   85  A    between atoms: _196  and  _197
REMARK   86  A    between atoms: _202  and  _204
REMARK   87  A    between atoms: _204  and  _205
REMARK   88  A    between atoms: _204  and  _207
REMARK   89  A    between atoms: _210  and  _212
REMARK   90  A    between atoms: _212  and  _213
REMARK   91  A    between atoms: _212  and  _215
REMARK   92  A    between atoms: _215  and  _216
REMARK   93  A    between atoms: _221  and  _223
REMARK   94  A    between atoms: _223  and  _224
REMARK   95  A    between atoms: _223  and  _226
REMARK   96  A    between atoms: _226  and  _227
REMARK   97  A    between atoms: _230  and  _232
REMARK   98  A    between atoms: _232  and  _233
REMARK   99  A    between atoms: _232  and  _235
REMARK  100  A    between atoms: _235  and  _236
REMARK  101  A    between atoms: _239  and  _241
REMARK  102  A    between atoms: _241  and  _242
REMARK  103  A    between atoms: _244  and  _246
REMARK  104  A    between atoms: _246  and  _247
REMARK  105  A    between atoms: _246  and  _249
REMARK  106  A    between atoms: _249  and  _250
REMARK  107  A    between atoms: _250  and  _251
REMARK  108  A    between atoms: _251  and  _252
REMARK  109  A    between atoms: _261  and  _263
REMARK  110  A    between atoms: _263  and  _264
REMARK  111  A    between atoms: _263  and  _266
REMARK  112  A    between atoms: _266  and  _267
REMARK  113  A    between atoms: _267  and  _268
REMARK  114  A    between atoms: _268  and  _269
REMARK  115  A    between atoms: _278  and  _280
REMARK  116  A    between atoms: _280  and  _281
REMARK  117  A    between atoms: _280  and  _283
REMARK  118  A    between atoms: _283  and  _284
REMARK  119  A    between atoms: _287  and  _289
REMARK  120  A    between atoms: _289  and  _290
REMARK  121  A    between atoms: _289  and  _292
REMARK  122  A    between atoms: _292  and  _293
REMARK  123  A    between atoms: _296  and  _298
REMARK  124  A    between atoms: _298  and  _299
REMARK  125  A    between atoms: _298  and  _301
REMARK  126  A    between atoms: _301  and  _302
REMARK  127  A    between atoms: _305  and  _307
REMARK  128  A    between atoms: _307  and  _308
REMARK  129  A    between atoms: _307  and  _310
REMARK  130  A    between atoms: _310  and  _311
REMARK  131  A    between atoms: _314  and  _316
REMARK  132  A    between atoms: _316  and  _317
REMARK  133  A    between atoms: _319  and  _321
REMARK  134  A    between atoms: _321  and  _322
REMARK  135  A    between atoms: _325  and  _327
REMARK  136  A    between atoms: _327  and  _328
REMARK  137  A    between atoms: _327  and  _330
REMARK  138  A    between atoms: _330  and  _331
REMARK  139  A    between atoms: _334  and  _336
REMARK  140  A    between atoms: _336  and  _337
REMARK  141  A    between atoms: _336  and  _339
REMARK  142  A    between atoms: _339  and  _340
REMARK  143  A    between atoms: _343  and  _345
REMARK  144  A    between atoms: _345  and  _346
REMARK  145  A    between atoms: _345  and  _348
REMARK  146  A    between atoms: _348  and  _349
REMARK  147  A    between atoms: _352  and  _354
REMARK  148  A    between atoms: _354  and  _355
REMARK  149  A    between atoms: _354  and  _357
REMARK  150  A    between atoms: _360  and  _362
REMARK  151  A    between atoms: _362  and  _363
REMARK  152  A    between atoms: _362  and  _365
REMARK  153  A    between atoms: _365  and  _366
REMARK  154  A    between atoms: _366  and  _367
REMARK  155  A    between atoms: _367  and  _368
REMARK  156  A    between atoms: _368  and  _369
REMARK  157  A    between atoms: _373  and  _375
REMARK  158  A    between atoms: _375  and  _376
REMARK  159  A    between atoms: _375  and  _378
REMARK  160  A    between atoms: _378  and  _379
REMARK  161  A    between atoms: _379  and  _380
REMARK  162  A    between atoms: _382  and  _384
REMARK  163  A    between atoms: _384  and  _385
REMARK  164  A    between atoms: _384  and  _387
REMARK  165  A    between atoms: _387  and  _388
REMARK  166  A    between atoms: _391  and  _393
REMARK  167  A    between atoms: _393  and  _394
REMARK  168  A    between atoms: _396  and  _398
REMARK  169  A    between atoms: _398  and  _399
REMARK  170  A    between atoms: _401  and  _403
REMARK  171  A    between atoms: _403  and  _404
REMARK  172  A    between atoms: _403  and  _406
REMARK  173  A    between atoms: _406  and  _407
REMARK  174  A    between atoms: _410  and  _412
REMARK  175  A    between atoms: _412  and  _413
REMARK  176  A    between atoms: _415  and  _417
REMARK  177  A    between atoms: _417  and  _418
REMARK  178  A    between atoms: _420  and  _422
REMARK  179  A    between atoms: _422  and  _423
REMARK  180  A    between atoms: _422  and  _425
REMARK  181  A    between atoms: _425  and  _426
REMARK  182  A    between atoms: _432  and  _434
REMARK  183  A    between atoms: _434  and  _435
REMARK  184  A    between atoms: _434  and  _437
REMARK  185  A    between atoms: _437  and  _438
REMARK  186  A    between atoms: _441  and  _443
REMARK  187  A    between atoms: _443  and  _444
REMARK  188  A    between atoms: _443  and  _446
REMARK  189  A    between atoms: _446  and  _447
REMARK  190  A    between atoms: _450  and  _452
REMARK  191  A    between atoms: _452  and  _453
REMARK  192  A    between atoms: _452  and  _455
REMARK  193  A    between atoms: _455  and  _456
REMARK  194  A    between atoms: _460  and  _461
REMARK  195  A    between atoms: _466  and  _468
REMARK  196  A    between atoms: _468  and  _469
REMARK  197  A    between atoms: _468  and  _471
REMARK  198  A    between atoms: _474  and  _476
REMARK  199  A    between atoms: _476  and  _477
REMARK  200  A    between atoms: _476  and  _479
REMARK  201  A    between atoms: _479  and  _480
REMARK  202  A    between atoms: _485  and  _487
REMARK  203  A    between atoms: _487  and  _488
REMARK  204  A    between atoms: _487  and  _490
REMARK  205  A    between atoms: _490  and  _491
REMARK  206  A    between atoms: _494  and  _496
REMARK  207  A    between atoms: _496  and  _497
REMARK  208  A    between atoms: _496  and  _499
REMARK  209  A    between atoms: _499  and  _500
REMARK  210  A    between atoms: _503  and  _505
REMARK  211  A    between atoms: _505  and  _506
REMARK  212  A    between atoms: _508  and  _510
REMARK  213  A    between atoms: _510  and  _511
REMARK  214  A    between atoms: _510  and  _513
REMARK  215  A    between atoms: _513  and  _514
REMARK  216  A    between atoms: _514  and  _515
REMARK  217  A    between atoms: _515  and  _516
REMARK  218  A    between atoms: _525  and  _527
REMARK  219  A    between atoms: _527  and  _528
REMARK  220  A    between atoms: _527  and  _530
REMARK  221  A    between atoms: _530  and  _531
REMARK                            x       y       z     vdW  Elec       q    Type
REMARK                         _______ _______ _______ _____ _____    ______ ____
ROOT
ATOM      1  O   HOH     1      15.998  43.234  15.911  0.00  0.00    +0.000 OA
ENDROOT
TORSDOF 0
REMARK  Name = ../refined-set-2016/2qi6/2qi6_pocket.pdb
REMARK  221 active torsions:
REMARK  status: ('A' for Active; 'I' for Inactive)
REMARK    1  A    between atoms: _1  and  _3
REMARK    2  A    between atoms: _3  and  _4
REMARK    3  A    between atoms: _3  and  _6
REMARK    4  A    between atoms: _6  and  _7
REMARK    5  A    between atoms: _7  and  _8
REMARK    6  A    between atoms: _8  and  _9
REMARK    7  A    between atoms: _18  and  _20
REMARK    8  A    between atoms: _20  and  _21
REMARK    9  A    between atoms: _20  and  _23
REMARK   10  A    between atoms: _23  and  _24
REMARK   11  A    between atoms: _27  and  _29
REMARK   12  A    between atoms: _29  and  _30
REMARK   13  A    between atoms: _29  and  _32
REMARK   14  A    between atoms: _32  and  _33
REMARK   15  A    between atoms: _36  and  _38
REMARK   16  A    between atoms: _38  and  _39
REMARK   17  A    between atoms: _38  and  _41
REMARK   18  A    between atoms: _41  and  _42
REMARK   19  A    between atoms: _45  and  _47
REMARK   20  A    between atoms: _47  and  _48
REMARK   21  A    between atoms: _47  and  _50
REMARK   22  A    between atoms: _50  and  _51
REMARK   23  A    between atoms: _54  and  _56
REMARK   24  A    between atoms: _56  and  _57
REMARK   25  A    between atoms: _59  and  _61
REMARK   26  A    between atoms: _61  and  _62
REMARK   27  A    between atoms: _65  and  _67
REMARK   28  A    between atoms: _67  and  _68
REMARK   29  A    between atoms: _67  and  _70
REMARK   30  A    between atoms: _70  and  _71
REMARK   31  A    between atoms: _74  and  _76
REMARK   32  A    between atoms: _76  and  _77
REMARK   33  A    between atoms: _76  and  _79
REMARK   34  A    between atoms: _79  and  _80
REMARK   35  A    between atoms: _83  and  _85
REMARK   36  A    between atoms: _85  and  _86
REMARK   37  A    between atoms: _85  and  _88
REMARK   38  A    between atoms: _88  and  _89
REMARK   39  A    between atoms: _92  and  _94
REMARK   40  A    between atoms: _94  and  _95
REMARK   41  A    between atoms: _94  and  _97
REMARK   42  A    between atoms: _100  and  _102
REMARK   43  A    between atoms: _102  and  _103
REMARK   44  A    between atoms: _102  and  _105
REMARK   45  A    between atoms: _105  and  _106
REMARK   46  A    between atoms: _106  and  _107
REMARK   47  A    between atoms: _107  and  _108
REMARK   48  A    between atoms: _108  and  _109
REMARK   49  A    between atoms: _113  and  _115
REMARK   50  A    between atoms: _115  and  _116
REMARK   51  A    between atoms: _115  and  _118
REMARK   52  A    between atoms: _118  and  _119
REMARK   53  A    between atoms: _119  and  _120
REMARK   54  A    between atoms: _122  and  _124
REMARK   55  A    between atoms: _124  and  _125
REMARK   56  A    between atoms: _124  and  _127
REMARK   57  A    between atoms: _127  and  _128
REMARK   58  A    between atoms: _131  and  _133
REMARK   59  A    between atoms: _133  and  _134
REMARK   60  A    between atoms: _136  and  _138
REMARK   61  A    between atoms: _138  and  _139
REMARK   62  A    between atoms: _141  and  _143
REMARK   63  A    between atoms: _143  and  _144
REMARK   64  A    between atoms: _143  and  _146
REMARK   65  A    between atoms: _146  and  _147
REMARK   66  A    between atoms: _150  and  _152
REMARK   67  A    between atoms: _152  and  _153
REMARK   68  A    between atoms: _155  and  _157
REMARK   69  A    between atoms: _157  and  _158
REMARK   70  A    between atoms: _160  and  _162
REMARK   71  A    between atoms: _162  and  _163
REMARK   72  A    between atoms: _162  and  _165
REMARK   73  A    between atoms: _165  and  _166
REMARK   74  A    between atoms: _169  and  _171
REMARK   75  A    between atoms: _171  and  _172
REMARK   76  A    between atoms: _171  and  _174
REMARK   77  A    between atoms: _177  and  _179
REMARK   78  A    between atoms: _179  and  _180
REMARK   79  A    between atoms: _179  and  _182
REMARK   80  A    between atoms: _182  and  _183
REMARK   81  A    between atoms: _186  and  _188
REMARK   82  A    between atoms: _188  and  _189
REMARK   83  A    between atoms: _188  and  _191
REMARK   84  A    between atoms: _191  and  _192
REMARK   85  A    between atoms: _196  and  _197
REMARK   86  A    between atoms: _202  and  _204
REMARK   87  A    between atoms: _204  and  _205
REMARK   88  A    between atoms: _204  and  _207
REMARK   89  A    between atoms: _210  and  _212
REMARK   90  A    between atoms: _212  and  _213
REMARK   91  A    between atoms: _212  and  _215
REMARK   92  A    between atoms: _215  and  _216
REMARK   93  A    between atoms: _221  and  _223
REMARK   94  A    between atoms: _223  and  _224
REMARK   95  A    between atoms: _223  and  _226
REMARK   96  A    between atoms: _226  and  _227
REMARK   97  A    between atoms: _230  and  _232
REMARK   98  A    between atoms: _232  and  _233
REMARK   99  A    between atoms: _232  and  _235
REMARK  100  A    between atoms: _235  and  _236
REMARK  101  A    between atoms: _239  and  _241
REMARK  102  A    between atoms: _241  and  _242
REMARK  103  A    between atoms: _244  and  _246
REMARK  104  A    between atoms: _246  and  _247
REMARK  105  A    between atoms: _246  and  _249
REMARK  106  A    between atoms: _249  and  _250
REMARK  107  A    between atoms: _250  and  _251
REMARK  108  A    between atoms: _251  and  _252
REMARK  109  A    between atoms: _261  and  _263
REMARK  110  A    between atoms: _263  and  _264
REMARK  111  A    between atoms: _263  and  _266
REMARK  112  A    between atoms: _266  and  _267
REMARK  113  A    between atoms: _267  and  _268
REMARK  114  A    between atoms: _268  and  _269
REMARK  115  A    between atoms: _278  and  _280
REMARK  116  A    between atoms: _280  and  _281
REMARK  117  A    between atoms: _280  and  _283
REMARK  118  A    between atoms: _283  and  _284
REMARK  119  A    between atoms: _287  and  _289
REMARK  120  A    between atoms: _289  and  _290
REMARK  121  A    between atoms: _289  and  _292
REMARK  122  A    between atoms: _292  and  _293
REMARK  123  A    between atoms: _296  and  _298
REMARK  124  A    between atoms: _298  and  _299
REMARK  125  A    between atoms: _298  and  _301
REMARK  126  A    between atoms: _301  and  _302
REMARK  127  A    between atoms: _305  and  _307
REMARK  128  A    between atoms: _307  and  _308
REMARK  129  A    between atoms: _307  and  _310
REMARK  130  A    between atoms: _310  and  _311
REMARK  131  A    between atoms: _314  and  _316
REMARK  132  A    between atoms: _316  and  _317
REMARK  133  A    between atoms: _319  and  _321
REMARK  134  A    between atoms: _321  and  _322
REMARK  135  A    between atoms: _325  and  _327
REMARK  136  A    between atoms: _327  and  _328
REMARK  137  A    between atoms: _327  and  _330
REMARK  138  A    between atoms: _330  and  _331
REMARK  139  A    between atoms: _334  and  _336
REMARK  140  A    between atoms: _336  and  _337
REMARK  141  A    between atoms: _336  and  _339
REMARK  142  A    between atoms: _339  and  _340
REMARK  143  A    between atoms: _343  and  _345
REMARK  144  A    between atoms: _345  and  _346
REMARK  145  A    between atoms: _345  and  _348
REMARK  146  A    between atoms: _348  and  _349
REMARK  147  A    between atoms: _352  and  _354
REMARK  148  A    between atoms: _354  and  _355
REMARK  149  A    between atoms: _354  and  _357
REMARK  150  A    between atoms: _360  and  _362
REMARK  151  A    between atoms: _362  and  _363
REMARK  152  A    between atoms: _362  and  _365
REMARK  153  A    between atoms: _365  and  _366
REMARK  154  A    between atoms: _366  and  _367
REMARK  155  A    between atoms: _367  and  _368
REMARK  156  A    between atoms: _368  and  _369
REMARK  157  A    between atoms: _373  and  _375
REMARK  158  A    between atoms: _375  and  _376
REMARK  159  A    between atoms: _375  and  _378
REMARK  160  A    between atoms: _378  and  _379
REMARK  161  A    between atoms: _379  and  _380
REMARK  162  A    between atoms: _382  and  _384
REMARK  163  A    between atoms: _384  and  _385
REMARK  164  A    between atoms: _384  and  _387
REMARK  165  A    between atoms: _387  and  _388
REMARK  166  A    between atoms: _391  and  _393
REMARK  167  A    between atoms: _393  and  _394
REMARK  168  A    between atoms: _396  and  _398
REMARK  169  A    between atoms: _398  and  _399
REMARK  170  A    between atoms: _401  and  _403
REMARK  171  A    between atoms: _403  and  _404
REMARK  172  A    between atoms: _403  and  _406
REMARK  173  A    between atoms: _406  and  _407
REMARK  174  A    between atoms: _410  and  _412
REMARK  175  A    between atoms: _412  and  _413
REMARK  176  A    between atoms: _415  and  _417
REMARK  177  A    between atoms: _417  and  _418
REMARK  178  A    between atoms: _420  and  _422
REMARK  179  A    between atoms: _422  and  _423
REMARK  180  A    between atoms: _422  and  _425
REMARK  181  A    between atoms: _425  and  _426
REMARK  182  A    between atoms: _432  and  _434
REMARK  183  A    between atoms: _434  and  _435
REMARK  184  A    between atoms: _434  and  _437
REMARK  185  A    between atoms: _437  and  _438
REMARK  186  A    between atoms: _441  and  _443
REMARK  187  A    between atoms: _443  and  _444
REMARK  188  A    between atoms: _443  and  _446
REMARK  189  A    between atoms: _446  and  _447
REMARK  190  A    between atoms: _450  and  _452
REMARK  191  A    between atoms: _452  and  _453
REMARK  192  A    between atoms: _452  and  _455
REMARK  193  A    between atoms: _455  and  _456
REMARK  194  A    between atoms: _460  and  _461
REMARK  195  A    between atoms: _466  and  _468
REMARK  196  A    between atoms: _468  and  _469
REMARK  197  A    between atoms: _468  and  _471
REMARK  198  A    between atoms: _474  and  _476
REMARK  199  A    between atoms: _476  and  _477
REMARK  200  A    between atoms: _476  and  _479
REMARK  201  A    between atoms: _479  and  _480
REMARK  202  A    between atoms: _485  and  _487
REMARK  203  A    between atoms: _487  and  _488
REMARK  204  A    between atoms: _487  and  _490
REMARK  205  A    between atoms: _490  and  _491
REMARK  206  A    between atoms: _494  and  _496
REMARK  207  A    between atoms: _496  and  _497
REMARK  208  A    between atoms: _496  and  _499
REMARK  209  A    between atoms: _499  and  _500
REMARK  210  A    between atoms: _503  and  _505
REMARK  211  A    between atoms: _505  and  _506
REMARK  212  A    between atoms: _508  and  _510
REMARK  213  A    between atoms: _510  and  _511
REMARK  214  A    between atoms: _510  and  _513
REMARK  215  A    between atoms: _513  and  _514
REMARK  216  A    between atoms: _514  and  _515
REMARK  217  A    between atoms: _515  and  _516
REMARK  218  A    between atoms: _525  and  _527
REMARK  219  A    between atoms: _527  and  _528
REMARK  220  A    between atoms: _527  and  _530
REMARK  221  A    between atoms: _530  and  _531
REMARK                            x       y       z     vdW  Elec       q    Type
REMARK                         _______ _______ _______ _____ _____    ______ ____
ROOT
ATOM      1  O   HOH     1      13.699  38.573  23.758  0.00  0.00    +0.000 OA
ENDROOT
TORSDOF 0
REMARK  Name = ../refined-set-2016/2qi6/2qi6_pocket.pdb
REMARK  221 active torsions:
REMARK  status: ('A' for Active; 'I' for Inactive)
REMARK    1  A    between atoms: _1  and  _3
REMARK    2  A    between atoms: _3  and  _4
REMARK    3  A    between atoms: _3  and  _6
REMARK    4  A    between atoms: _6  and  _7
REMARK    5  A    between atoms: _7  and  _8
REMARK    6  A    between atoms: _8  and  _9
REMARK    7  A    between atoms: _18  and  _20
REMARK    8  A    between atoms: _20  and  _21
REMARK    9  A    between atoms: _20  and  _23
REMARK   10  A    between atoms: _23  and  _24
REMARK   11  A    between atoms: _27  and  _29
REMARK   12  A    between atoms: _29  and  _30
REMARK   13  A    between atoms: _29  and  _32
REMARK   14  A    between atoms: _32  and  _33
REMARK   15  A    between atoms: _36  and  _38
REMARK   16  A    between atoms: _38  and  _39
REMARK   17  A    between atoms: _38  and  _41
REMARK   18  A    between atoms: _41  and  _42
REMARK   19  A    between atoms: _45  and  _47
REMARK   20  A    between atoms: _47  and  _48
REMARK   21  A    between atoms: _47  and  _50
REMARK   22  A    between atoms: _50  and  _51
REMARK   23  A    between atoms: _54  and  _56
REMARK   24  A    between atoms: _56  and  _57
REMARK   25  A    between atoms: _59  and  _61
REMARK   26  A    between atoms: _61  and  _62
REMARK   27  A    between atoms: _65  and  _67
REMARK   28  A    between atoms: _67  and  _68
REMARK   29  A    between atoms: _67  and  _70
REMARK   30  A    between atoms: _70  and  _71
REMARK   31  A    between atoms: _74  and  _76
REMARK   32  A    between atoms: _76  and  _77
REMARK   33  A    between atoms: _76  and  _79
REMARK   34  A    between atoms: _79  and  _80
REMARK   35  A    between atoms: _83  and  _85
REMARK   36  A    between atoms: _85  and  _86
REMARK   37  A    between atoms: _85  and  _88
REMARK   38  A    between atoms: _88  and  _89
REMARK   39  A    between atoms: _92  and  _94
REMARK   40  A    between atoms: _94  and  _95
REMARK   41  A    between atoms: _94  and  _97
REMARK   42  A    between atoms: _100  and  _102
REMARK   43  A    between atoms: _102  and  _103
REMARK   44  A    between atoms: _102  and  _105
REMARK   45  A    between atoms: _105  and  _106
REMARK   46  A    between atoms: _106  and  _107
REMARK   47  A    between atoms: _107  and  _108
REMARK   48  A    between atoms: _108  and  _109
REMARK   49  A    between atoms: _113  and  _115
REMARK   50  A    between atoms: _115  and  _116
REMARK   51  A    between atoms: _115  and  _118
REMARK   52  A    between atoms: _118  and  _119
REMARK   53  A    between atoms: _119  and  _120
REMARK   54  A    between atoms: _122  and  _124
REMARK   55  A    between atoms: _124  and  _125
REMARK   56  A    between atoms: _124  and  _127
REMARK   57  A    between atoms: _127  and  _128
REMARK   58  A    between atoms: _131  and  _133
REMARK   59  A    between atoms: _133  and  _134
REMARK   60  A    between atoms: _136  and  _138
REMARK   61  A    between atoms: _138  and  _139
REMARK   62  A    between atoms: _141  and  _143
REMARK   63  A    between atoms: _143  and  _144
REMARK   64  A    between atoms: _143  and  _146
REMARK   65  A    between atoms: _146  and  _147
REMARK   66  A    between atoms: _150  and  _152
REMARK   67  A    between atoms: _152  and  _153
REMARK   68  A    between atoms: _155  and  _157
REMARK   69  A    between atoms: _157  and  _158
REMARK   70  A    between atoms: _160  and  _162
REMARK   71  A    between atoms: _162  and  _163
REMARK   72  A    between atoms: _162  and  _165
REMARK   73  A    between atoms: _165  and  _166
REMARK   74  A    between atoms: _169  and  _171
REMARK   75  A    between atoms: _171  and  _172
REMARK   76  A    between atoms: _171  and  _174
REMARK   77  A    between atoms: _177  and  _179
REMARK   78  A    between atoms: _179  and  _180
REMARK   79  A    between atoms: _179  and  _182
REMARK   80  A    between atoms: _182  and  _183
REMARK   81  A    between atoms: _186  and  _188
REMARK   82  A    between atoms: _188  and  _189
REMARK   83  A    between atoms: _188  and  _191
REMARK   84  A    between atoms: _191  and  _192
REMARK   85  A    between atoms: _196  and  _197
REMARK   86  A    between atoms: _202  and  _204
REMARK   87  A    between atoms: _204  and  _205
REMARK   88  A    between atoms: _204  and  _207
REMARK   89  A    between atoms: _210  and  _212
REMARK   90  A    between atoms: _212  and  _213
REMARK   91  A    between atoms: _212  and  _215
REMARK   92  A    between atoms: _215  and  _216
REMARK   93  A    between atoms: _221  and  _223
REMARK   94  A    between atoms: _223  and  _224
REMARK   95  A    between atoms: _223  and  _226
REMARK   96  A    between atoms: _226  and  _227
REMARK   97  A    between atoms: _230  and  _232
REMARK   98  A    between atoms: _232  and  _233
REMARK   99  A    between atoms: _232  and  _235
REMARK  100  A    between atoms: _235  and  _236
REMARK  101  A    between atoms: _239  and  _241
REMARK  102  A    between atoms: _241  and  _242
REMARK  103  A    between atoms: _244  and  _246
REMARK  104  A    between atoms: _246  and  _247
REMARK  105  A    between atoms: _246  and  _249
REMARK  106  A    between atoms: _249  and  _250
REMARK  107  A    between atoms: _250  and  _251
REMARK  108  A    between atoms: _251  and  _252
REMARK  109  A    between atoms: _261  and  _263
REMARK  110  A    between atoms: _263  and  _264
REMARK  111  A    between atoms: _263  and  _266
REMARK  112  A    between atoms: _266  and  _267
REMARK  113  A    between atoms: _267  and  _268
REMARK  114  A    between atoms: _268  and  _269
REMARK  115  A    between atoms: _278  and  _280
REMARK  116  A    between atoms: _280  and  _281
REMARK  117  A    between atoms: _280  and  _283
REMARK  118  A    between atoms: _283  and  _284
REMARK  119  A    between atoms: _287  and  _289
REMARK  120  A    between atoms: _289  and  _290
REMARK  121  A    between atoms: _289  and  _292
REMARK  122  A    between atoms: _292  and  _293
REMARK  123  A    between atoms: _296  and  _298
REMARK  124  A    between atoms: _298  and  _299
REMARK  125  A    between atoms: _298  and  _301
REMARK  126  A    between atoms: _301  and  _302
REMARK  127  A    between atoms: _305  and  _307
REMARK  128  A    between atoms: _307  and  _308
REMARK  129  A    between atoms: _307  and  _310
REMARK  130  A    between atoms: _310  and  _311
REMARK  131  A    between atoms: _314  and  _316
REMARK  132  A    between atoms: _316  and  _317
REMARK  133  A    between atoms: _319  and  _321
REMARK  134  A    between atoms: _321  and  _322
REMARK  135  A    between atoms: _325  and  _327
REMARK  136  A    between atoms: _327  and  _328
REMARK  137  A    between atoms: _327  and  _330
REMARK  138  A    between atoms: _330  and  _331
REMARK  139  A    between atoms: _334  and  _336
REMARK  140  A    between atoms: _336  and  _337
REMARK  141  A    between atoms: _336  and  _339
REMARK  142  A    between atoms: _339  and  _340
REMARK  143  A    between atoms: _343  and  _345
REMARK  144  A    between atoms: _345  and  _346
REMARK  145  A    between atoms: _345  and  _348
REMARK  146  A    between atoms: _348  and  _349
REMARK  147  A    between atoms: _352  and  _354
REMARK  148  A    between atoms: _354  and  _355
REMARK  149  A    between atoms: _354  and  _357
REMARK  150  A    between atoms: _360  and  _362
REMARK  151  A    between atoms: _362  and  _363
REMARK  152  A    between atoms: _362  and  _365
REMARK  153  A    between atoms: _365  and  _366
REMARK  154  A    between atoms: _366  and  _367
REMARK  155  A    between atoms: _367  and  _368
REMARK  156  A    between atoms: _368  and  _369
REMARK  157  A    between atoms: _373  and  _375
REMARK  158  A    between atoms: _375  and  _376
REMARK  159  A    between atoms: _375  and  _378
REMARK  160  A    between atoms: _378  and  _379
REMARK  161  A    between atoms: _379  and  _380
REMARK  162  A    between atoms: _382  and  _384
REMARK  163  A    between atoms: _384  and  _385
REMARK  164  A    between atoms: _384  and  _387
REMARK  165  A    between atoms: _387  and  _388
REMARK  166  A    between atoms: _391  and  _393
REMARK  167  A    between atoms: _393  and  _394
REMARK  168  A    between atoms: _396  and  _398
REMARK  169  A    between atoms: _398  and  _399
REMARK  170  A    between atoms: _401  and  _403
REMARK  171  A    between atoms: _403  and  _404
REMARK  172  A    between atoms: _403  and  _406
REMARK  173  A    between atoms: _406  and  _407
REMARK  174  A    between atoms: _410  and  _412
REMARK  175  A    between atoms: _412  and  _413
REMARK  176  A    between atoms: _415  and  _417
REMARK  177  A    between atoms: _417  and  _418
REMARK  178  A    between atoms: _420  and  _422
REMARK  179  A    between atoms: _422  and  _423
REMARK  180  A    between atoms: _422  and  _425
REMARK  181  A    between atoms: _425  and  _426
REMARK  182  A    between atoms: _432  and  _434
REMARK  183  A    between atoms: _434  and  _435
REMARK  184  A    between atoms: _434  and  _437
REMARK  185  A    between atoms: _437  and  _438
REMARK  186  A    between atoms: _441  and  _443
REMARK  187  A    between atoms: _443  and  _444
REMARK  188  A    between atoms: _443  and  _446
REMARK  189  A    between atoms: _446  and  _447
REMARK  190  A    between atoms: _450  and  _452
REMARK  191  A    between atoms: _452  and  _453
REMARK  192  A    between atoms: _452  and  _455
REMARK  193  A    between atoms: _455  and  _456
REMARK  194  A    between atoms: _460  and  _461
REMARK  195  A    between atoms: _466  and  _468
REMARK  196  A    between atoms: _468  and  _469
REMARK  197  A    between atoms: _468  and  _471
REMARK  198  A    between atoms: _474  and  _476
REMARK  199  A    between atoms: _476  and  _477
REMARK  200  A    between atoms: _476  and  _479
REMARK  201  A    between atoms: _479  and  _480
REMARK  202  A    between atoms: _485  and  _487
REMARK  203  A    between atoms: _487  and  _488
REMARK  204  A    between atoms: _487  and  _490
REMARK  205  A    between atoms: _490  and  _491
REMARK  206  A    between atoms: _494  and  _496
REMARK  207  A    between atoms: _496  and  _497
REMARK  208  A    between atoms: _496  and  _499
REMARK  209  A    between atoms: _499  and  _500
REMARK  210  A    between atoms: _503  and  _505
REMARK  211  A    between atoms: _505  and  _506
REMARK  212  A    between atoms: _508  and  _510
REMARK  213  A    between atoms: _510  and  _511
REMARK  214  A    between atoms: _510  and  _513
REMARK  215  A    between atoms: _513  and  _514
REMARK  216  A    between atoms: _514  and  _515
REMARK  217  A    between atoms: _515  and  _516
REMARK  218  A    between atoms: _525  and  _527
REMARK  219  A    between atoms: _527  and  _528
REMARK  220  A    between atoms: _527  and  _530
REMARK  221  A    between atoms: _530  and  _531
REMARK                            x       y       z     vdW  Elec       q    Type
REMARK                         _______ _______ _______ _____ _____    ______ ____
ROOT
ATOM      1  O   HOH     1      15.061  21.049  10.968  0.00  0.00    +0.000 OA
ENDROOT
TORSDOF 0
REMARK  Name = ../refined-set-2016/2qi6/2qi6_pocket.pdb
REMARK  221 active torsions:
REMARK  status: ('A' for Active; 'I' for Inactive)
REMARK    1  A    between atoms: _1  and  _3
REMARK    2  A    between atoms: _3  and  _4
REMARK    3  A    between atoms: _3  and  _6
REMARK    4  A    between atoms: _6  and  _7
REMARK    5  A    between atoms: _7  and  _8
REMARK    6  A    between atoms: _8  and  _9
REMARK    7  A    between atoms: _18  and  _20
REMARK    8  A    between atoms: _20  and  _21
REMARK    9  A    between atoms: _20  and  _23
REMARK   10  A    between atoms: _23  and  _24
REMARK   11  A    between atoms: _27  and  _29
REMARK   12  A    between atoms: _29  and  _30
REMARK   13  A    between atoms: _29  and  _32
REMARK   14  A    between atoms: _32  and  _33
REMARK   15  A    between atoms: _36  and  _38
REMARK   16  A    between atoms: _38  and  _39
REMARK   17  A    between atoms: _38  and  _41
REMARK   18  A    between atoms: _41  and  _42
REMARK   19  A    between atoms: _45  and  _47
REMARK   20  A    between atoms: _47  and  _48
REMARK   21  A    between atoms: _47  and  _50
REMARK   22  A    between atoms: _50  and  _51
REMARK   23  A    between atoms: _54  and  _56
REMARK   24  A    between atoms: _56  and  _57
REMARK   25  A    between atoms: _59  and  _61
REMARK   26  A    between atoms: _61  and  _62
REMARK   27  A    between atoms: _65  and  _67
REMARK   28  A    between atoms: _67  and  _68
REMARK   29  A    between atoms: _67  and  _70
REMARK   30  A    between atoms: _70  and  _71
REMARK   31  A    between atoms: _74  and  _76
REMARK   32  A    between atoms: _76  and  _77
REMARK   33  A    between atoms: _76  and  _79
REMARK   34  A    between atoms: _79  and  _80
REMARK   35  A    between atoms: _83  and  _85
REMARK   36  A    between atoms: _85  and  _86
REMARK   37  A    between atoms: _85  and  _88
REMARK   38  A    between atoms: _88  and  _89
REMARK   39  A    between atoms: _92  and  _94
REMARK   40  A    between atoms: _94  and  _95
REMARK   41  A    between atoms: _94  and  _97
REMARK   42  A    between atoms: _100  and  _102
REMARK   43  A    between atoms: _102  and  _103
REMARK   44  A    between atoms: _102  and  _105
REMARK   45  A    between atoms: _105  and  _106
REMARK   46  A    between atoms: _106  and  _107
REMARK   47  A    between atoms: _107  and  _108
REMARK   48  A    between atoms: _108  and  _109
REMARK   49  A    between atoms: _113  and  _115
REMARK   50  A    between atoms: _115  and  _116
REMARK   51  A    between atoms: _115  and  _118
REMARK   52  A    between atoms: _118  and  _119
REMARK   53  A    between atoms: _119  and  _120
REMARK   54  A    between atoms: _122  and  _124
REMARK   55  A    between atoms: _124  and  _125
REMARK   56  A    between atoms: _124  and  _127
REMARK   57  A    between atoms: _127  and  _128
REMARK   58  A    between atoms: _131  and  _133
REMARK   59  A    between atoms: _133  and  _134
REMARK   60  A    between atoms: _136  and  _138
REMARK   61  A    between atoms: _138  and  _139
REMARK   62  A    between atoms: _141  and  _143
REMARK   63  A    between atoms: _143  and  _144
REMARK   64  A    between atoms: _143  and  _146
REMARK   65  A    between atoms: _146  and  _147
REMARK   66  A    between atoms: _150  and  _152
REMARK   67  A    between atoms: _152  and  _153
REMARK   68  A    between atoms: _155  and  _157
REMARK   69  A    between atoms: _157  and  _158
REMARK   70  A    between atoms: _160  and  _162
REMARK   71  A    between atoms: _162  and  _163
REMARK   72  A    between atoms: _162  and  _165
REMARK   73  A    between atoms: _165  and  _166
REMARK   74  A    between atoms: _169  and  _171
REMARK   75  A    between atoms: _171  and  _172
REMARK   76  A    between atoms: _171  and  _174
REMARK   77  A    between atoms: _177  and  _179
REMARK   78  A    between atoms: _179  and  _180
REMARK   79  A    between atoms: _179  and  _182
REMARK   80  A    between atoms: _182  and  _183
REMARK   81  A    between atoms: _186  and  _188
REMARK   82  A    between atoms: _188  and  _189
REMARK   83  A    between atoms: _188  and  _191
REMARK   84  A    between atoms: _191  and  _192
REMARK   85  A    between atoms: _196  and  _197
REMARK   86  A    between atoms: _202  and  _204
REMARK   87  A    between atoms: _204  and  _205
REMARK   88  A    between atoms: _204  and  _207
REMARK   89  A    between atoms: _210  and  _212
REMARK   90  A    between atoms: _212  and  _213
REMARK   91  A    between atoms: _212  and  _215
REMARK   92  A    between atoms: _215  and  _216
REMARK   93  A    between atoms: _221  and  _223
REMARK   94  A    between atoms: _223  and  _224
REMARK   95  A    between atoms: _223  and  _226
REMARK   96  A    between atoms: _226  and  _227
REMARK   97  A    between atoms: _230  and  _232
REMARK   98  A    between atoms: _232  and  _233
REMARK   99  A    between atoms: _232  and  _235
REMARK  100  A    between atoms: _235  and  _236
REMARK  101  A    between atoms: _239  and  _241
REMARK  102  A    between atoms: _241  and  _242
REMARK  103  A    between atoms: _244  and  _246
REMARK  104  A    between atoms: _246  and  _247
REMARK  105  A    between atoms: _246  and  _249
REMARK  106  A    between atoms: _249  and  _250
REMARK  107  A    between atoms: _250  and  _251
REMARK  108  A    between atoms: _251  and  _252
REMARK  109  A    between atoms: _261  and  _263
REMARK  110  A    between atoms: _263  and  _264
REMARK  111  A    between atoms: _263  and  _266
REMARK  112  A    between atoms: _266  and  _267
REMARK  113  A    between atoms: _267  and  _268
REMARK  114  A    between atoms: _268  and  _269
REMARK  115  A    between atoms: _278  and  _280
REMARK  116  A    between atoms: _280  and  _281
REMARK  117  A    between atoms: _280  and  _283
REMARK  118  A    between atoms: _283  and  _284
REMARK  119  A    between atoms: _287  and  _289
REMARK  120  A    between atoms: _289  and  _290
REMARK  121  A    between atoms: _289  and  _292
REMARK  122  A    between atoms: _292  and  _293
REMARK  123  A    between atoms: _296  and  _298
REMARK  124  A    between atoms: _298  and  _299
REMARK  125  A    between atoms: _298  and  _301
REMARK  126  A    between atoms: _301  and  _302
REMARK  127  A    between atoms: _305  and  _307
REMARK  128  A    between atoms: _307  and  _308
REMARK  129  A    between atoms: _307  and  _310
REMARK  130  A    between atoms: _310  and  _311
REMARK  131  A    between atoms: _314  and  _316
REMARK  132  A    between atoms: _316  and  _317
REMARK  133  A    between atoms: _319  and  _321
REMARK  134  A    between atoms: _321  and  _322
REMARK  135  A    between atoms: _325  and  _327
REMARK  136  A    between atoms: _327  and  _328
REMARK  137  A    between atoms: _327  and  _330
REMARK  138  A    between atoms: _330  and  _331
REMARK  139  A    between atoms: _334  and  _336
REMARK  140  A    between atoms: _336  and  _337
REMARK  141  A    between atoms: _336  and  _339
REMARK  142  A    between atoms: _339  and  _340
REMARK  143  A    between atoms: _343  and  _345
REMARK  144  A    between atoms: _345  and  _346
REMARK  145  A    between atoms: _345  and  _348
REMARK  146  A    between atoms: _348  and  _349
REMARK  147  A    between atoms: _352  and  _354
REMARK  148  A    between atoms: _354  and  _355
REMARK  149  A    between atoms: _354  and  _357
REMARK  150  A    between atoms: _360  and  _362
REMARK  151  A    between atoms: _362  and  _363
REMARK  152  A    between atoms: _362  and  _365
REMARK  153  A    between atoms: _365  and  _366
REMARK  154  A    between atoms: _366  and  _367
REMARK  155  A    between atoms: _367  and  _368
REMARK  156  A    between atoms: _368  and  _369
REMARK  157  A    between atoms: _373  and  _375
REMARK  158  A    between atoms: _375  and  _376
REMARK  159  A    between atoms: _375  and  _378
REMARK  160  A    between atoms: _378  and  _379
REMARK  161  A    between atoms: _379  and  _380
REMARK  162  A    between atoms: _382  and  _384
REMARK  163  A    between atoms: _384  and  _385
REMARK  164  A    between atoms: _384  and  _387
REMARK  165  A    between atoms: _387  and  _388
REMARK  166  A    between atoms: _391  and  _393
REMARK  167  A    between atoms: _393  and  _394
REMARK  168  A    between atoms: _396  and  _398
REMARK  169  A    between atoms: _398  and  _399
REMARK  170  A    between atoms: _401  and  _403
REMARK  171  A    between atoms: _403  and  _404
REMARK  172  A    between atoms: _403  and  _406
REMARK  173  A    between atoms: _406  and  _407
REMARK  174  A    between atoms: _410  and  _412
REMARK  175  A    between atoms: _412  and  _413
REMARK  176  A    between atoms: _415  and  _417
REMARK  177  A    between atoms: _417  and  _418
REMARK  178  A    between atoms: _420  and  _422
REMARK  179  A    between atoms: _422  and  _423
REMARK  180  A    between atoms: _422  and  _425
REMARK  181  A    between atoms: _425  and  _426
REMARK  182  A    between atoms: _432  and  _434
REMARK  183  A    between atoms: _434  and  _435
REMARK  184  A    between atoms: _434  and  _437
REMARK  185  A    between atoms: _437  and  _438
REMARK  186  A    between atoms: _441  and  _443
REMARK  187  A    between atoms: _443  and  _444
REMARK  188  A    between atoms: _443  and  _446
REMARK  189  A    between atoms: _446  and  _447
REMARK  190  A    between atoms: _450  and  _452
REMARK  191  A    between atoms: _452  and  _453
REMARK  192  A    between atoms: _452  and  _455
REMARK  193  A    between atoms: _455  and  _456
REMARK  194  A    between atoms: _460  and  _461
REMARK  195  A    between atoms: _466  and  _468
REMARK  196  A    between atoms: _468  and  _469
REMARK  197  A    between atoms: _468  and  _471
REMARK  198  A    between atoms: _474  and  _476
REMARK  199  A    between atoms: _476  and  _477
REMARK  200  A    between atoms: _476  and  _479
REMARK  201  A    between atoms: _479  and  _480
REMARK  202  A    between atoms: _485  and  _487
REMARK  203  A    between atoms: _487  and  _488
REMARK  204  A    between atoms: _487  and  _490
REMARK  205  A    between atoms: _490  and  _491
REMARK  206  A    between atoms: _494  and  _496
REMARK  207  A    between atoms: _496  and  _497
REMARK  208  A    between atoms: _496  and  _499
REMARK  209  A    between atoms: _499  and  _500
REMARK  210  A    between atoms: _503  and  _505
REMARK  211  A    between atoms: _505  and  _506
REMARK  212  A    between atoms: _508  and  _510
REMARK  213  A    between atoms: _510  and  _511
REMARK  214  A    between atoms: _510  and  _513
REMARK  215  A    between atoms: _513  and  _514
REMARK  216  A    between atoms: _514  and  _515
REMARK  217  A    between atoms: _515  and  _516
REMARK  218  A    between atoms: _525  and  _527
REMARK  219  A    between atoms: _527  and  _528
REMARK  220  A    between atoms: _527  and  _530
REMARK  221  A    between atoms: _530  and  _531
REMARK                            x       y       z     vdW  Elec       q    Type
REMARK                         _______ _______ _______ _____ _____    ______ ____
ROOT
ATOM      1  O   HOH     1      10.001  36.671  23.618  0.00  0.00    +0.000 OA
ENDROOT
TORSDOF 0
REMARK  Name = ../refined-set-2016/2qi6/2qi6_pocket.pdb
REMARK  221 active torsions:
REMARK  status: ('A' for Active; 'I' for Inactive)
REMARK    1  A    between atoms: _1  and  _3
REMARK    2  A    between atoms: _3  and  _4
REMARK    3  A    between atoms: _3  and  _6
REMARK    4  A    between atoms: _6  and  _7
REMARK    5  A    between atoms: _7  and  _8
REMARK    6  A    between atoms: _8  and  _9
REMARK    7  A    between atoms: _18  and  _20
REMARK    8  A    between atoms: _20  and  _21
REMARK    9  A    between atoms: _20  and  _23
REMARK   10  A    between atoms: _23  and  _24
REMARK   11  A    between atoms: _27  and  _29
REMARK   12  A    between atoms: _29  and  _30
REMARK   13  A    between atoms: _29  and  _32
REMARK   14  A    between atoms: _32  and  _33
REMARK   15  A    between atoms: _36  and  _38
REMARK   16  A    between atoms: _38  and  _39
REMARK   17  A    between atoms: _38  and  _41
REMARK   18  A    between atoms: _41  and  _42
REMARK   19  A    between atoms: _45  and  _47
REMARK   20  A    between atoms: _47  and  _48
REMARK   21  A    between atoms: _47  and  _50
REMARK   22  A    between atoms: _50  and  _51
REMARK   23  A    between atoms: _54  and  _56
REMARK   24  A    between atoms: _56  and  _57
REMARK   25  A    between atoms: _59  and  _61
REMARK   26  A    between atoms: _61  and  _62
REMARK   27  A    between atoms: _65  and  _67
REMARK   28  A    between atoms: _67  and  _68
REMARK   29  A    between atoms: _67  and  _70
REMARK   30  A    between atoms: _70  and  _71
REMARK   31  A    between atoms: _74  and  _76
REMARK   32  A    between atoms: _76  and  _77
REMARK   33  A    between atoms: _76  and  _79
REMARK   34  A    between atoms: _79  and  _80
REMARK   35  A    between atoms: _83  and  _85
REMARK   36  A    between atoms: _85  and  _86
REMARK   37  A    between atoms: _85  and  _88
REMARK   38  A    between atoms: _88  and  _89
REMARK   39  A    between atoms: _92  and  _94
REMARK   40  A    between atoms: _94  and  _95
REMARK   41  A    between atoms: _94  and  _97
REMARK   42  A    between atoms: _100  and  _102
REMARK   43  A    between atoms: _102  and  _103
REMARK   44  A    between atoms: _102  and  _105
REMARK   45  A    between atoms: _105  and  _106
REMARK   46  A    between atoms: _106  and  _107
REMARK   47  A    between atoms: _107  and  _108
REMARK   48  A    between atoms: _108  and  _109
REMARK   49  A    between atoms: _113  and  _115
REMARK   50  A    between atoms: _115  and  _116
REMARK   51  A    between atoms: _115  and  _118
REMARK   52  A    between atoms: _118  and  _119
REMARK   53  A    between atoms: _119  and  _120
REMARK   54  A    between atoms: _122  and  _124
REMARK   55  A    between atoms: _124  and  _125
REMARK   56  A    between atoms: _124  and  _127
REMARK   57  A    between atoms: _127  and  _128
REMARK   58  A    between atoms: _131  and  _133
REMARK   59  A    between atoms: _133  and  _134
REMARK   60  A    between atoms: _136  and  _138
REMARK   61  A    between atoms: _138  and  _139
REMARK   62  A    between atoms: _141  and  _143
REMARK   63  A    between atoms: _143  and  _144
REMARK   64  A    between atoms: _143  and  _146
REMARK   65  A    between atoms: _146  and  _147
REMARK   66  A    between atoms: _150  and  _152
REMARK   67  A    between atoms: _152  and  _153
REMARK   68  A    between atoms: _155  and  _157
REMARK   69  A    between atoms: _157  and  _158
REMARK   70  A    between atoms: _160  and  _162
REMARK   71  A    between atoms: _162  and  _163
REMARK   72  A    between atoms: _162  and  _165
REMARK   73  A    between atoms: _165  and  _166
REMARK   74  A    between atoms: _169  and  _171
REMARK   75  A    between atoms: _171  and  _172
REMARK   76  A    between atoms: _171  and  _174
REMARK   77  A    between atoms: _177  and  _179
REMARK   78  A    between atoms: _179  and  _180
REMARK   79  A    between atoms: _179  and  _182
REMARK   80  A    between atoms: _182  and  _183
REMARK   81  A    between atoms: _186  and  _188
REMARK   82  A    between atoms: _188  and  _189
REMARK   83  A    between atoms: _188  and  _191
REMARK   84  A    between atoms: _191  and  _192
REMARK   85  A    between atoms: _196  and  _197
REMARK   86  A    between atoms: _202  and  _204
REMARK   87  A    between atoms: _204  and  _205
REMARK   88  A    between atoms: _204  and  _207
REMARK   89  A    between atoms: _210  and  _212
REMARK   90  A    between atoms: _212  and  _213
REMARK   91  A    between atoms: _212  and  _215
REMARK   92  A    between atoms: _215  and  _216
REMARK   93  A    between atoms: _221  and  _223
REMARK   94  A    between atoms: _223  and  _224
REMARK   95  A    between atoms: _223  and  _226
REMARK   96  A    between atoms: _226  and  _227
REMARK   97  A    between atoms: _230  and  _232
REMARK   98  A    between atoms: _232  and  _233
REMARK   99  A    between atoms: _232  and  _235
REMARK  100  A    between atoms: _235  and  _236
REMARK  101  A    between atoms: _239  and  _241
REMARK  102  A    between atoms: _241  and  _242
REMARK  103  A    between atoms: _244  and  _246
REMARK  104  A    between atoms: _246  and  _247
REMARK  105  A    between atoms: _246  and  _249
REMARK  106  A    between atoms: _249  and  _250
REMARK  107  A    between atoms: _250  and  _251
REMARK  108  A    between atoms: _251  and  _252
REMARK  109  A    between atoms: _261  and  _263
REMARK  110  A    between atoms: _263  and  _264
REMARK  111  A    between atoms: _263  and  _266
REMARK  112  A    between atoms: _266  and  _267
REMARK  113  A    between atoms: _267  and  _268
REMARK  114  A    between atoms: _268  and  _269
REMARK  115  A    between atoms: _278  and  _280
REMARK  116  A    between atoms: _280  and  _281
REMARK  117  A    between atoms: _280  and  _283
REMARK  118  A    between atoms: _283  and  _284
REMARK  119  A    between atoms: _287  and  _289
REMARK  120  A    between atoms: _289  and  _290
REMARK  121  A    between atoms: _289  and  _292
REMARK  122  A    between atoms: _292  and  _293
REMARK  123  A    between atoms: _296  and  _298
REMARK  124  A    between atoms: _298  and  _299
REMARK  125  A    between atoms: _298  and  _301
REMARK  126  A    between atoms: _301  and  _302
REMARK  127  A    between atoms: _305  and  _307
REMARK  128  A    between atoms: _307  and  _308
REMARK  129  A    between atoms: _307  and  _310
REMARK  130  A    between atoms: _310  and  _311
REMARK  131  A    between atoms: _314  and  _316
REMARK  132  A    between atoms: _316  and  _317
REMARK  133  A    between atoms: _319  and  _321
REMARK  134  A    between atoms: _321  and  _322
REMARK  135  A    between atoms: _325  and  _327
REMARK  136  A    between atoms: _327  and  _328
REMARK  137  A    between atoms: _327  and  _330
REMARK  138  A    between atoms: _330  and  _331
REMARK  139  A    between atoms: _334  and  _336
REMARK  140  A    between atoms: _336  and  _337
REMARK  141  A    between atoms: _336  and  _339
REMARK  142  A    between atoms: _339  and  _340
REMARK  143  A    between atoms: _343  and  _345
REMARK  144  A    between atoms: _345  and  _346
REMARK  145  A    between atoms: _345  and  _348
REMARK  146  A    between atoms: _348  and  _349
REMARK  147  A    between atoms: _352  and  _354
REMARK  148  A    between atoms: _354  and  _355
REMARK  149  A    between atoms: _354  and  _357
REMARK  150  A    between atoms: _360  and  _362
REMARK  151  A    between atoms: _362  and  _363
REMARK  152  A    between atoms: _362  and  _365
REMARK  153  A    between atoms: _365  and  _366
REMARK  154  A    between atoms: _366  and  _367
REMARK  155  A    between atoms: _367  and  _368
REMARK  156  A    between atoms: _368  and  _369
REMARK  157  A    between atoms: _373  and  _375
REMARK  158  A    between atoms: _375  and  _376
REMARK  159  A    between atoms: _375  and  _378
REMARK  160  A    between atoms: _378  and  _379
REMARK  161  A    between atoms: _379  and  _380
REMARK  162  A    between atoms: _382  and  _384
REMARK  163  A    between atoms: _384  and  _385
REMARK  164  A    between atoms: _384  and  _387
REMARK  165  A    between atoms: _387  and  _388
REMARK  166  A    between atoms: _391  and  _393
REMARK  167  A    between atoms: _393  and  _394
REMARK  168  A    between atoms: _396  and  _398
REMARK  169  A    between atoms: _398  and  _399
REMARK  170  A    between atoms: _401  and  _403
REMARK  171  A    between atoms: _403  and  _404
REMARK  172  A    between atoms: _403  and  _406
REMARK  173  A    between atoms: _406  and  _407
REMARK  174  A    between atoms: _410  and  _412
REMARK  175  A    between atoms: _412  and  _413
REMARK  176  A    between atoms: _415  and  _417
REMARK  177  A    between atoms: _417  and  _418
REMARK  178  A    between atoms: _420  and  _422
REMARK  179  A    between atoms: _422  and  _423
REMARK  180  A    between atoms: _422  and  _425
REMARK  181  A    between atoms: _425  and  _426
REMARK  182  A    between atoms: _432  and  _434
REMARK  183  A    between atoms: _434  and  _435
REMARK  184  A    between atoms: _434  and  _437
REMARK  185  A    between atoms: _437  and  _438
REMARK  186  A    between atoms: _441  and  _443
REMARK  187  A    between atoms: _443  and  _444
REMARK  188  A    between atoms: _443  and  _446
REMARK  189  A    between atoms: _446  and  _447
REMARK  190  A    between atoms: _450  and  _452
REMARK  191  A    between atoms: _452  and  _453
REMARK  192  A    between atoms: _452  and  _455
REMARK  193  A    between atoms: _455  and  _456
REMARK  194  A    between atoms: _460  and  _461
REMARK  195  A    between atoms: _466  and  _468
REMARK  196  A    between atoms: _468  and  _469
REMARK  197  A    between atoms: _468  and  _471
REMARK  198  A    between atoms: _474  and  _476
REMARK  199  A    between atoms: _476  and  _477
REMARK  200  A    between atoms: _476  and  _479
REMARK  201  A    between atoms: _479  and  _480
REMARK  202  A    between atoms: _485  and  _487
REMARK  203  A    between atoms: _487  and  _488
REMARK  204  A    between atoms: _487  and  _490
REMARK  205  A    between atoms: _490  and  _491
REMARK  206  A    between atoms: _494  and  _496
REMARK  207  A    between atoms: _496  and  _497
REMARK  208  A    between atoms: _496  and  _499
REMARK  209  A    between atoms: _499  and  _500
REMARK  210  A    between atoms: _503  and  _505
REMARK  211  A    between atoms: _505  and  _506
REMARK  212  A    between atoms: _508  and  _510
REMARK  213  A    between atoms: _510  and  _511
REMARK  214  A    between atoms: _510  and  _513
REMARK  215  A    between atoms: _513  and  _514
REMARK  216  A    between atoms: _514  and  _515
REMARK  217  A    between atoms: _515  and  _516
REMARK  218  A    between atoms: _525  and  _527
REMARK  219  A    between atoms: _527  and  _528
REMARK  220  A    between atoms: _527  and  _530
REMARK  221  A    between atoms: _530  and  _531
REMARK                            x       y       z     vdW  Elec       q    Type
REMARK                         _______ _______ _______ _____ _____    ______ ____
ROOT
ATOM      1  O   HOH     1      12.471  21.442  10.737  0.00  0.00    +0.000 OA
ENDROOT
TORSDOF 0
REMARK  Name = ../refined-set-2016/2qi6/2qi6_pocket.pdb
REMARK  221 active torsions:
REMARK  status: ('A' for Active; 'I' for Inactive)
REMARK    1  A    between atoms: _1  and  _3
REMARK    2  A    between atoms: _3  and  _4
REMARK    3  A    between atoms: _3  and  _6
REMARK    4  A    between atoms: _6  and  _7
REMARK    5  A    between atoms: _7  and  _8
REMARK    6  A    between atoms: _8  and  _9
REMARK    7  A    between atoms: _18  and  _20
REMARK    8  A    between atoms: _20  and  _21
REMARK    9  A    between atoms: _20  and  _23
REMARK   10  A    between atoms: _23  and  _24
REMARK   11  A    between atoms: _27  and  _29
REMARK   12  A    between atoms: _29  and  _30
REMARK   13  A    between atoms: _29  and  _32
REMARK   14  A    between atoms: _32  and  _33
REMARK   15  A    between atoms: _36  and  _38
REMARK   16  A    between atoms: _38  and  _39
REMARK   17  A    between atoms: _38  and  _41
REMARK   18  A    between atoms: _41  and  _42
REMARK   19  A    between atoms: _45  and  _47
REMARK   20  A    between atoms: _47  and  _48
REMARK   21  A    between atoms: _47  and  _50
REMARK   22  A    between atoms: _50  and  _51
REMARK   23  A    between atoms: _54  and  _56
REMARK   24  A    between atoms: _56  and  _57
REMARK   25  A    between atoms: _59  and  _61
REMARK   26  A    between atoms: _61  and  _62
REMARK   27  A    between atoms: _65  and  _67
REMARK   28  A    between atoms: _67  and  _68
REMARK   29  A    between atoms: _67  and  _70
REMARK   30  A    between atoms: _70  and  _71
REMARK   31  A    between atoms: _74  and  _76
REMARK   32  A    between atoms: _76  and  _77
REMARK   33  A    between atoms: _76  and  _79
REMARK   34  A    between atoms: _79  and  _80
REMARK   35  A    between atoms: _83  and  _85
REMARK   36  A    between atoms: _85  and  _86
REMARK   37  A    between atoms: _85  and  _88
REMARK   38  A    between atoms: _88  and  _89
REMARK   39  A    between atoms: _92  and  _94
REMARK   40  A    between atoms: _94  and  _95
REMARK   41  A    between atoms: _94  and  _97
REMARK   42  A    between atoms: _100  and  _102
REMARK   43  A    between atoms: _102  and  _103
REMARK   44  A    between atoms: _102  and  _105
REMARK   45  A    between atoms: _105  and  _106
REMARK   46  A    between atoms: _106  and  _107
REMARK   47  A    between atoms: _107  and  _108
REMARK   48  A    between atoms: _108  and  _109
REMARK   49  A    between atoms: _113  and  _115
REMARK   50  A    between atoms: _115  and  _116
REMARK   51  A    between atoms: _115  and  _118
REMARK   52  A    between atoms: _118  and  _119
REMARK   53  A    between atoms: _119  and  _120
REMARK   54  A    between atoms: _122  and  _124
REMARK   55  A    between atoms: _124  and  _125
REMARK   56  A    between atoms: _124  and  _127
REMARK   57  A    between atoms: _127  and  _128
REMARK   58  A    between atoms: _131  and  _133
REMARK   59  A    between atoms: _133  and  _134
REMARK   60  A    between atoms: _136  and  _138
REMARK   61  A    between atoms: _138  and  _139
REMARK   62  A    between atoms: _141  and  _143
REMARK   63  A    between atoms: _143  and  _144
REMARK   64  A    between atoms: _143  and  _146
REMARK   65  A    between atoms: _146  and  _147
REMARK   66  A    between atoms: _150  and  _152
REMARK   67  A    between atoms: _152  and  _153
REMARK   68  A    between atoms: _155  and  _157
REMARK   69  A    between atoms: _157  and  _158
REMARK   70  A    between atoms: _160  and  _162
REMARK   71  A    between atoms: _162  and  _163
REMARK   72  A    between atoms: _162  and  _165
REMARK   73  A    between atoms: _165  and  _166
REMARK   74  A    between atoms: _169  and  _171
REMARK   75  A    between atoms: _171  and  _172
REMARK   76  A    between atoms: _171  and  _174
REMARK   77  A    between atoms: _177  and  _179
REMARK   78  A    between atoms: _179  and  _180
REMARK   79  A    between atoms: _179  and  _182
REMARK   80  A    between atoms: _182  and  _183
REMARK   81  A    between atoms: _186  and  _188
REMARK   82  A    between atoms: _188  and  _189
REMARK   83  A    between atoms: _188  and  _191
REMARK   84  A    between atoms: _191  and  _192
REMARK   85  A    between atoms: _196  and  _197
REMARK   86  A    between atoms: _202  and  _204
REMARK   87  A    between atoms: _204  and  _205
REMARK   88  A    between atoms: _204  and  _207
REMARK   89  A    between atoms: _210  and  _212
REMARK   90  A    between atoms: _212  and  _213
REMARK   91  A    between atoms: _212  and  _215
REMARK   92  A    between atoms: _215  and  _216
REMARK   93  A    between atoms: _221  and  _223
REMARK   94  A    between atoms: _223  and  _224
REMARK   95  A    between atoms: _223  and  _226
REMARK   96  A    between atoms: _226  and  _227
REMARK   97  A    between atoms: _230  and  _232
REMARK   98  A    between atoms: _232  and  _233
REMARK   99  A    between atoms: _232  and  _235
REMARK  100  A    between atoms: _235  and  _236
REMARK  101  A    between atoms: _239  and  _241
REMARK  102  A    between atoms: _241  and  _242
REMARK  103  A    between atoms: _244  and  _246
REMARK  104  A    between atoms: _246  and  _247
REMARK  105  A    between atoms: _246  and  _249
REMARK  106  A    between atoms: _249  and  _250
REMARK  107  A    between atoms: _250  and  _251
REMARK  108  A    between atoms: _251  and  _252
REMARK  109  A    between atoms: _261  and  _263
REMARK  110  A    between atoms: _263  and  _264
REMARK  111  A    between atoms: _263  and  _266
REMARK  112  A    between atoms: _266  and  _267
REMARK  113  A    between atoms: _267  and  _268
REMARK  114  A    between atoms: _268  and  _269
REMARK  115  A    between atoms: _278  and  _280
REMARK  116  A    between atoms: _280  and  _281
REMARK  117  A    between atoms: _280  and  _283
REMARK  118  A    between atoms: _283  and  _284
REMARK  119  A    between atoms: _287  and  _289
REMARK  120  A    between atoms: _289  and  _290
REMARK  121  A    between atoms: _289  and  _292
REMARK  122  A    between atoms: _292  and  _293
REMARK  123  A    between atoms: _296  and  _298
REMARK  124  A    between atoms: _298  and  _299
REMARK  125  A    between atoms: _298  and  _301
REMARK  126  A    between atoms: _301  and  _302
REMARK  127  A    between atoms: _305  and  _307
REMARK  128  A    between atoms: _307  and  _308
REMARK  129  A    between atoms: _307  and  _310
REMARK  130  A    between atoms: _310  and  _311
REMARK  131  A    between atoms: _314  and  _316
REMARK  132  A    between atoms: _316  and  _317
REMARK  133  A    between atoms: _319  and  _321
REMARK  134  A    between atoms: _321  and  _322
REMARK  135  A    between atoms: _325  and  _327
REMARK  136  A    between atoms: _327  and  _328
REMARK  137  A    between atoms: _327  and  _330
REMARK  138  A    between atoms: _330  and  _331
REMARK  139  A    between atoms: _334  and  _336
REMARK  140  A    between atoms: _336  and  _337
REMARK  141  A    between atoms: _336  and  _339
REMARK  142  A    between atoms: _339  and  _340
REMARK  143  A    between atoms: _343  and  _345
REMARK  144  A    between atoms: _345  and  _346
REMARK  145  A    between atoms: _345  and  _348
REMARK  146  A    between atoms: _348  and  _349
REMARK  147  A    between atoms: _352  and  _354
REMARK  148  A    between atoms: _354  and  _355
REMARK  149  A    between atoms: _354  and  _357
REMARK  150  A    between atoms: _360  and  _362
REMARK  151  A    between atoms: _362  and  _363
REMARK  152  A    between atoms: _362  and  _365
REMARK  153  A    between atoms: _365  and  _366
REMARK  154  A    between atoms: _366  and  _367
REMARK  155  A    between atoms: _367  and  _368
REMARK  156  A    between atoms: _368  and  _369
REMARK  157  A    between atoms: _373  and  _375
REMARK  158  A    between atoms: _375  and  _376
REMARK  159  A    between atoms: _375  and  _378
REMARK  160  A    between atoms: _378  and  _379
REMARK  161  A    between atoms: _379  and  _380
REMARK  162  A    between atoms: _382  and  _384
REMARK  163  A    between atoms: _384  and  _385
REMARK  164  A    between atoms: _384  and  _387
REMARK  165  A    between atoms: _387  and  _388
REMARK  166  A    between atoms: _391  and  _393
REMARK  167  A    between atoms: _393  and  _394
REMARK  168  A    between atoms: _396  and  _398
REMARK  169  A    between atoms: _398  and  _399
REMARK  170  A    between atoms: _401  and  _403
REMARK  171  A    between atoms: _403  and  _404
REMARK  172  A    between atoms: _403  and  _406
REMARK  173  A    between atoms: _406  and  _407
REMARK  174  A    between atoms: _410  and  _412
REMARK  175  A    between atoms: _412  and  _413
REMARK  176  A    between atoms: _415  and  _417
REMARK  177  A    between atoms: _417  and  _418
REMARK  178  A    between atoms: _420  and  _422
REMARK  179  A    between atoms: _422  and  _423
REMARK  180  A    between atoms: _422  and  _425
REMARK  181  A    between atoms: _425  and  _426
REMARK  182  A    between atoms: _432  and  _434
REMARK  183  A    between atoms: _434  and  _435
REMARK  184  A    between atoms: _434  and  _437
REMARK  185  A    between atoms: _437  and  _438
REMARK  186  A    between atoms: _441  and  _443
REMARK  187  A    between atoms: _443  and  _444
REMARK  188  A    between atoms: _443  and  _446
REMARK  189  A    between atoms: _446  and  _447
REMARK  190  A    between atoms: _450  and  _452
REMARK  191  A    between atoms: _452  and  _453
REMARK  192  A    between atoms: _452  and  _455
REMARK  193  A    between atoms: _455  and  _456
REMARK  194  A    between atoms: _460  and  _461
REMARK  195  A    between atoms: _466  and  _468
REMARK  196  A    between atoms: _468  and  _469
REMARK  197  A    between atoms: _468  and  _471
REMARK  198  A    between atoms: _474  and  _476
REMARK  199  A    between atoms: _476  and  _477
REMARK  200  A    between atoms: _476  and  _479
REMARK  201  A    between atoms: _479  and  _480
REMARK  202  A    between atoms: _485  and  _487
REMARK  203  A    between atoms: _487  and  _488
REMARK  204  A    between atoms: _487  and  _490
REMARK  205  A    between atoms: _490  and  _491
REMARK  206  A    between atoms: _494  and  _496
REMARK  207  A    between atoms: _496  and  _497
REMARK  208  A    between atoms: _496  and  _499
REMARK  209  A    between atoms: _499  and  _500
REMARK  210  A    between atoms: _503  and  _505
REMARK  211  A    between atoms: _505  and  _506
REMARK  212  A    between atoms: _508  and  _510
REMARK  213  A    between atoms: _510  and  _511
REMARK  214  A    between atoms: _510  and  _513
REMARK  215  A    between atoms: _513  and  _514
REMARK  216  A    between atoms: _514  and  _515
REMARK  217  A    between atoms: _515  and  _516
REMARK  218  A    between atoms: _525  and  _527
REMARK  219  A    between atoms: _527  and  _528
REMARK  220  A    between atoms: _527  and  _530
REMARK  221  A    between atoms: _530  and  _531
REMARK                            x       y       z     vdW  Elec       q    Type
REMARK                         _______ _______ _______ _____ _____    ______ ____
ROOT
ATOM      1  O   HOH     1      22.489  36.254  20.735  0.00  0.00    +0.000 OA
ENDROOT
TORSDOF 0
