REMARK  Name = ../refined-set-2016/1bdq/1bdq_pocket.pdb
REMARK  214 active torsions:
REMARK  status: ('A' for Active; 'I' for Inactive)
REMARK    1  A    between atoms: _1  and  _3
REMARK    2  A    between atoms: _3  and  _4
REMARK    3  A    between atoms: _3  and  _6
REMARK    4  A    between atoms: _6  and  _7
REMARK    5  A    between atoms: _7  and  _8
REMARK    6  A    between atoms: _8  and  _9
REMARK    7  A    between atoms: _18  and  _20
REMARK    8  A    between atoms: _20  and  _21
REMARK    9  A    between atoms: _20  and  _23
REMARK   10  A    between atoms: _23  and  _24
REMARK   11  A    between atoms: _27  and  _29
REMARK   12  A    between atoms: _29  and  _30
REMARK   13  A    between atoms: _29  and  _32
REMARK   14  A    between atoms: _32  and  _33
REMARK   15  A    between atoms: _36  and  _38
REMARK   16  A    between atoms: _38  and  _39
REMARK   17  A    between atoms: _38  and  _41
REMARK   18  A    between atoms: _41  and  _42
REMARK   19  A    between atoms: _45  and  _47
REMARK   20  A    between atoms: _47  and  _48
REMARK   21  A    between atoms: _50  and  _52
REMARK   22  A    between atoms: _52  and  _53
REMARK   23  A    between atoms: _56  and  _58
REMARK   24  A    between atoms: _58  and  _59
REMARK   25  A    between atoms: _58  and  _61
REMARK   26  A    between atoms: _61  and  _62
REMARK   27  A    between atoms: _65  and  _67
REMARK   28  A    between atoms: _67  and  _68
REMARK   29  A    between atoms: _67  and  _70
REMARK   30  A    between atoms: _70  and  _71
REMARK   31  A    between atoms: _74  and  _76
REMARK   32  A    between atoms: _76  and  _77
REMARK   33  A    between atoms: _76  and  _79
REMARK   34  A    between atoms: _79  and  _80
REMARK   35  A    between atoms: _82  and  _84
REMARK   36  A    between atoms: _84  and  _85
REMARK   37  A    between atoms: _84  and  _87
REMARK   38  A    between atoms: _87  and  _88
REMARK   39  A    between atoms: _91  and  _93
REMARK   40  A    between atoms: _93  and  _94
REMARK   41  A    between atoms: _93  and  _96
REMARK   42  A    between atoms: _96  and  _97
REMARK   43  A    between atoms: _97  and  _98
REMARK   44  A    between atoms: _98  and  _99
REMARK   45  A    between atoms: _99  and  _100
REMARK   46  A    between atoms: _104  and  _106
REMARK   47  A    between atoms: _106  and  _107
REMARK   48  A    between atoms: _106  and  _109
REMARK   49  A    between atoms: _112  and  _114
REMARK   50  A    between atoms: _114  and  _115
REMARK   51  A    between atoms: _117  and  _119
REMARK   52  A    between atoms: _119  and  _120
REMARK   53  A    between atoms: _122  and  _124
REMARK   54  A    between atoms: _124  and  _125
REMARK   55  A    between atoms: _124  and  _127
REMARK   56  A    between atoms: _127  and  _128
REMARK   57  A    between atoms: _131  and  _133
REMARK   58  A    between atoms: _133  and  _134
REMARK   59  A    between atoms: _136  and  _138
REMARK   60  A    between atoms: _138  and  _139
REMARK   61  A    between atoms: _141  and  _143
REMARK   62  A    between atoms: _143  and  _144
REMARK   63  A    between atoms: _143  and  _146
REMARK   64  A    between atoms: _146  and  _147
REMARK   65  A    between atoms: _150  and  _152
REMARK   66  A    between atoms: _152  and  _153
REMARK   67  A    between atoms: _152  and  _155
REMARK   68  A    between atoms: _155  and  _156
REMARK   69  A    between atoms: _159  and  _161
REMARK   70  A    between atoms: _161  and  _162
REMARK   71  A    between atoms: _161  and  _164
REMARK   72  A    between atoms: _164  and  _165
REMARK   73  A    between atoms: _169  and  _170
REMARK   74  A    between atoms: _175  and  _177
REMARK   75  A    between atoms: _177  and  _178
REMARK   76  A    between atoms: _177  and  _180
REMARK   77  A    between atoms: _180  and  _181
REMARK   78  A    between atoms: _184  and  _186
REMARK   79  A    between atoms: _186  and  _187
REMARK   80  A    between atoms: _186  and  _189
REMARK   81  A    between atoms: _189  and  _190
REMARK   82  A    between atoms: _195  and  _197
REMARK   83  A    between atoms: _197  and  _198
REMARK   84  A    between atoms: _197  and  _200
REMARK   85  A    between atoms: _200  and  _201
REMARK   86  A    between atoms: _204  and  _206
REMARK   87  A    between atoms: _206  and  _207
REMARK   88  A    between atoms: _206  and  _209
REMARK   89  A    between atoms: _209  and  _210
REMARK   90  A    between atoms: _213  and  _215
REMARK   91  A    between atoms: _215  and  _216
REMARK   92  A    between atoms: _218  and  _220
REMARK   93  A    between atoms: _220  and  _221
REMARK   94  A    between atoms: _220  and  _223
REMARK   95  A    between atoms: _223  and  _224
REMARK   96  A    between atoms: _224  and  _225
REMARK   97  A    between atoms: _225  and  _226
REMARK   98  A    between atoms: _235  and  _237
REMARK   99  A    between atoms: _237  and  _238
REMARK  100  A    between atoms: _237  and  _240
REMARK  101  A    between atoms: _240  and  _241
REMARK  102  A    between atoms: _246  and  _248
REMARK  103  A    between atoms: _248  and  _249
REMARK  104  A    between atoms: _248  and  _251
REMARK  105  A    between atoms: _251  and  _252
REMARK  106  A    between atoms: _252  and  _253
REMARK  107  A    between atoms: _253  and  _254
REMARK  108  A    between atoms: _263  and  _265
REMARK  109  A    between atoms: _265  and  _266
REMARK  110  A    between atoms: _265  and  _268
REMARK  111  A    between atoms: _268  and  _269
REMARK  112  A    between atoms: _272  and  _274
REMARK  113  A    between atoms: _274  and  _275
REMARK  114  A    between atoms: _274  and  _277
REMARK  115  A    between atoms: _277  and  _278
REMARK  116  A    between atoms: _281  and  _283
REMARK  117  A    between atoms: _283  and  _284
REMARK  118  A    between atoms: _283  and  _286
REMARK  119  A    between atoms: _286  and  _287
REMARK  120  A    between atoms: _290  and  _292
REMARK  121  A    between atoms: _292  and  _293
REMARK  122  A    between atoms: _292  and  _295
REMARK  123  A    between atoms: _295  and  _296
REMARK  124  A    between atoms: _299  and  _301
REMARK  125  A    between atoms: _301  and  _302
REMARK  126  A    between atoms: _304  and  _306
REMARK  127  A    between atoms: _306  and  _307
REMARK  128  A    between atoms: _310  and  _312
REMARK  129  A    between atoms: _312  and  _313
REMARK  130  A    between atoms: _312  and  _315
REMARK  131  A    between atoms: _315  and  _316
REMARK  132  A    between atoms: _319  and  _321
REMARK  133  A    between atoms: _321  and  _322
REMARK  134  A    between atoms: _321  and  _324
REMARK  135  A    between atoms: _324  and  _325
REMARK  136  A    between atoms: _328  and  _330
REMARK  137  A    between atoms: _330  and  _331
REMARK  138  A    between atoms: _330  and  _333
REMARK  139  A    between atoms: _333  and  _334
REMARK  140  A    between atoms: _336  and  _338
REMARK  141  A    between atoms: _338  and  _339
REMARK  142  A    between atoms: _338  and  _341
REMARK  143  A    between atoms: _341  and  _342
REMARK  144  A    between atoms: _345  and  _347
REMARK  145  A    between atoms: _347  and  _348
REMARK  146  A    between atoms: _347  and  _350
REMARK  147  A    between atoms: _350  and  _351
REMARK  148  A    between atoms: _351  and  _352
REMARK  149  A    between atoms: _352  and  _353
REMARK  150  A    between atoms: _353  and  _354
REMARK  151  A    between atoms: _358  and  _360
REMARK  152  A    between atoms: _360  and  _361
REMARK  153  A    between atoms: _360  and  _363
REMARK  154  A    between atoms: _363  and  _364
REMARK  155  A    between atoms: _364  and  _365
REMARK  156  A    between atoms: _367  and  _369
REMARK  157  A    between atoms: _369  and  _370
REMARK  158  A    between atoms: _369  and  _372
REMARK  159  A    between atoms: _375  and  _377
REMARK  160  A    between atoms: _377  and  _378
REMARK  161  A    between atoms: _380  and  _382
REMARK  162  A    between atoms: _382  and  _383
REMARK  163  A    between atoms: _385  and  _387
REMARK  164  A    between atoms: _387  and  _388
REMARK  165  A    between atoms: _387  and  _390
REMARK  166  A    between atoms: _390  and  _391
REMARK  167  A    between atoms: _394  and  _396
REMARK  168  A    between atoms: _396  and  _397
REMARK  169  A    between atoms: _399  and  _401
REMARK  170  A    between atoms: _401  and  _402
REMARK  171  A    between atoms: _404  and  _406
REMARK  172  A    between atoms: _406  and  _407
REMARK  173  A    between atoms: _406  and  _409
REMARK  174  A    between atoms: _409  and  _410
REMARK  175  A    between atoms: _416  and  _418
REMARK  176  A    between atoms: _418  and  _419
REMARK  177  A    between atoms: _418  and  _421
REMARK  178  A    between atoms: _421  and  _422
REMARK  179  A    between atoms: _425  and  _427
REMARK  180  A    between atoms: _427  and  _428
REMARK  181  A    between atoms: _427  and  _430
REMARK  182  A    between atoms: _433  and  _435
REMARK  183  A    between atoms: _435  and  _436
REMARK  184  A    between atoms: _435  and  _438
REMARK  185  A    between atoms: _438  and  _439
REMARK  186  A    between atoms: _442  and  _444
REMARK  187  A    between atoms: _444  and  _445
REMARK  188  A    between atoms: _444  and  _447
REMARK  189  A    between atoms: _447  and  _448
REMARK  190  A    between atoms: _452  and  _453
REMARK  191  A    between atoms: _458  and  _460
REMARK  192  A    between atoms: _460  and  _461
REMARK  193  A    between atoms: _460  and  _463
REMARK  194  A    between atoms: _463  and  _464
REMARK  195  A    between atoms: _467  and  _469
REMARK  196  A    between atoms: _469  and  _470
REMARK  197  A    between atoms: _469  and  _472
REMARK  198  A    between atoms: _472  and  _473
REMARK  199  A    between atoms: _478  and  _480
REMARK  200  A    between atoms: _480  and  _481
REMARK  201  A    between atoms: _480  and  _483
REMARK  202  A    between atoms: _483  and  _484
REMARK  203  A    between atoms: _487  and  _489
REMARK  204  A    between atoms: _489  and  _490
REMARK  205  A    between atoms: _489  and  _492
REMARK  206  A    between atoms: _492  and  _493
REMARK  207  A    between atoms: _496  and  _498
REMARK  208  A    between atoms: _498  and  _499
REMARK  209  A    between atoms: _501  and  _503
REMARK  210  A    between atoms: _503  and  _504
REMARK  211  A    between atoms: _503  and  _506
REMARK  212  A    between atoms: _506  and  _507
REMARK  213  A    between atoms: _507  and  _508
REMARK  214  A    between atoms: _508  and  _509
REMARK                            x       y       z     vdW  Elec       q    Type
REMARK                         _______ _______ _______ _____ _____    ______ ____
ROOT
ATOM      1  NE  ARG A   1      -4.192  23.556  22.404  0.00  0.00    -0.265 N 
ATOM      2  CZ  ARG A   1      -3.203  22.681  22.598  0.00  0.00    +0.342 C 
ATOM      3  NH2 ARG A   1      -2.075  23.017  23.218  0.00  0.00    -0.292 N 
ATOM      4 HH21 ARG A   1      -1.943  23.987  23.569  0.00  0.00    +0.255 HD
ATOM      5 HH22 ARG A   1      -1.325  22.309  23.352  0.00  0.00    +0.255 HD
ATOM      6  NH1 ARG A   1      -3.327  21.451  22.123  0.00  0.00    -0.292 N 
ATOM      7 HH11 ARG A   1      -2.564  20.759  22.267  0.00  0.00    +0.255 HD
ATOM      8 HH12 ARG A   1      -4.187  21.177  21.606  0.00  0.00    +0.255 HD
ATOM      9  HE  ARG A   1      -5.046  23.217  21.918  0.00  0.00    +0.259 HD
ENDROOT
BRANCH   1  10
ATOM     10  CD  ARG A   1      -4.164  24.952  22.823  0.00  0.00    +0.174 C 
BRANCH  10  11
ATOM     11  CG  ARG A   1      -5.376  25.704  22.321  0.00  0.00    +0.045 C 
BRANCH  11  12
ATOM     12  CB  ARG A   1      -5.247  27.150  22.716  0.00  0.00    +0.029 C 
BRANCH  12  13
ATOM     13  CA  ARG A   1      -6.468  28.007  22.464  0.00  0.00    +0.133 C 
BRANCH  13  14
ATOM     14  N   ARG A   1      -6.360  28.829  21.245  0.00  0.00    -0.239 NA
ATOM     15  H   ARG A   1      -5.504  28.737  20.661  0.00  0.00    +0.142 HD
ENDBRANCH  13  14
BRANCH  13  16
ATOM     16  C   ARG A   1      -6.576  28.957  23.657  0.00  0.00    +0.224 C 
ATOM     17  O   ARG A   1      -5.795  29.918  23.695  0.00  0.00    -0.287 OA
ENDBRANCH  13  16
ENDBRANCH  12  13
ENDBRANCH  11  12
ENDBRANCH  10  11
ENDBRANCH   1  10
TORSDOF 6
REMARK  Name = ../refined-set-2016/1bdq/1bdq_pocket.pdb
REMARK  214 active torsions:
REMARK  status: ('A' for Active; 'I' for Inactive)
REMARK    1  A    between atoms: _1  and  _3
REMARK    2  A    between atoms: _3  and  _4
REMARK    3  A    between atoms: _3  and  _6
REMARK    4  A    between atoms: _6  and  _7
REMARK    5  A    between atoms: _7  and  _8
REMARK    6  A    between atoms: _8  and  _9
REMARK    7  A    between atoms: _18  and  _20
REMARK    8  A    between atoms: _20  and  _21
REMARK    9  A    between atoms: _20  and  _23
REMARK   10  A    between atoms: _23  and  _24
REMARK   11  A    between atoms: _27  and  _29
REMARK   12  A    between atoms: _29  and  _30
REMARK   13  A    between atoms: _29  and  _32
REMARK   14  A    between atoms: _32  and  _33
REMARK   15  A    between atoms: _36  and  _38
REMARK   16  A    between atoms: _38  and  _39
REMARK   17  A    between atoms: _38  and  _41
REMARK   18  A    between atoms: _41  and  _42
REMARK   19  A    between atoms: _45  and  _47
REMARK   20  A    between atoms: _47  and  _48
REMARK   21  A    between atoms: _50  and  _52
REMARK   22  A    between atoms: _52  and  _53
REMARK   23  A    between atoms: _56  and  _58
REMARK   24  A    between atoms: _58  and  _59
REMARK   25  A    between atoms: _58  and  _61
REMARK   26  A    between atoms: _61  and  _62
REMARK   27  A    between atoms: _65  and  _67
REMARK   28  A    between atoms: _67  and  _68
REMARK   29  A    between atoms: _67  and  _70
REMARK   30  A    between atoms: _70  and  _71
REMARK   31  A    between atoms: _74  and  _76
REMARK   32  A    between atoms: _76  and  _77
REMARK   33  A    between atoms: _76  and  _79
REMARK   34  A    between atoms: _79  and  _80
REMARK   35  A    between atoms: _82  and  _84
REMARK   36  A    between atoms: _84  and  _85
REMARK   37  A    between atoms: _84  and  _87
REMARK   38  A    between atoms: _87  and  _88
REMARK   39  A    between atoms: _91  and  _93
REMARK   40  A    between atoms: _93  and  _94
REMARK   41  A    between atoms: _93  and  _96
REMARK   42  A    between atoms: _96  and  _97
REMARK   43  A    between atoms: _97  and  _98
REMARK   44  A    between atoms: _98  and  _99
REMARK   45  A    between atoms: _99  and  _100
REMARK   46  A    between atoms: _104  and  _106
REMARK   47  A    between atoms: _106  and  _107
REMARK   48  A    between atoms: _106  and  _109
REMARK   49  A    between atoms: _112  and  _114
REMARK   50  A    between atoms: _114  and  _115
REMARK   51  A    between atoms: _117  and  _119
REMARK   52  A    between atoms: _119  and  _120
REMARK   53  A    between atoms: _122  and  _124
REMARK   54  A    between atoms: _124  and  _125
REMARK   55  A    between atoms: _124  and  _127
REMARK   56  A    between atoms: _127  and  _128
REMARK   57  A    between atoms: _131  and  _133
REMARK   58  A    between atoms: _133  and  _134
REMARK   59  A    between atoms: _136  and  _138
REMARK   60  A    between atoms: _138  and  _139
REMARK   61  A    between atoms: _141  and  _143
REMARK   62  A    between atoms: _143  and  _144
REMARK   63  A    between atoms: _143  and  _146
REMARK   64  A    between atoms: _146  and  _147
REMARK   65  A    between atoms: _150  and  _152
REMARK   66  A    between atoms: _152  and  _153
REMARK   67  A    between atoms: _152  and  _155
REMARK   68  A    between atoms: _155  and  _156
REMARK   69  A    between atoms: _159  and  _161
REMARK   70  A    between atoms: _161  and  _162
REMARK   71  A    between atoms: _161  and  _164
REMARK   72  A    between atoms: _164  and  _165
REMARK   73  A    between atoms: _169  and  _170
REMARK   74  A    between atoms: _175  and  _177
REMARK   75  A    between atoms: _177  and  _178
REMARK   76  A    between atoms: _177  and  _180
REMARK   77  A    between atoms: _180  and  _181
REMARK   78  A    between atoms: _184  and  _186
REMARK   79  A    between atoms: _186  and  _187
REMARK   80  A    between atoms: _186  and  _189
REMARK   81  A    between atoms: _189  and  _190
REMARK   82  A    between atoms: _195  and  _197
REMARK   83  A    between atoms: _197  and  _198
REMARK   84  A    between atoms: _197  and  _200
REMARK   85  A    between atoms: _200  and  _201
REMARK   86  A    between atoms: _204  and  _206
REMARK   87  A    between atoms: _206  and  _207
REMARK   88  A    between atoms: _206  and  _209
REMARK   89  A    between atoms: _209  and  _210
REMARK   90  A    between atoms: _213  and  _215
REMARK   91  A    between atoms: _215  and  _216
REMARK   92  A    between atoms: _218  and  _220
REMARK   93  A    between atoms: _220  and  _221
REMARK   94  A    between atoms: _220  and  _223
REMARK   95  A    between atoms: _223  and  _224
REMARK   96  A    between atoms: _224  and  _225
REMARK   97  A    between atoms: _225  and  _226
REMARK   98  A    between atoms: _235  and  _237
REMARK   99  A    between atoms: _237  and  _238
REMARK  100  A    between atoms: _237  and  _240
REMARK  101  A    between atoms: _240  and  _241
REMARK  102  A    between atoms: _246  and  _248
REMARK  103  A    between atoms: _248  and  _249
REMARK  104  A    between atoms: _248  and  _251
REMARK  105  A    between atoms: _251  and  _252
REMARK  106  A    between atoms: _252  and  _253
REMARK  107  A    between atoms: _253  and  _254
REMARK  108  A    between atoms: _263  and  _265
REMARK  109  A    between atoms: _265  and  _266
REMARK  110  A    between atoms: _265  and  _268
REMARK  111  A    between atoms: _268  and  _269
REMARK  112  A    between atoms: _272  and  _274
REMARK  113  A    between atoms: _274  and  _275
REMARK  114  A    between atoms: _274  and  _277
REMARK  115  A    between atoms: _277  and  _278
REMARK  116  A    between atoms: _281  and  _283
REMARK  117  A    between atoms: _283  and  _284
REMARK  118  A    between atoms: _283  and  _286
REMARK  119  A    between atoms: _286  and  _287
REMARK  120  A    between atoms: _290  and  _292
REMARK  121  A    between atoms: _292  and  _293
REMARK  122  A    between atoms: _292  and  _295
REMARK  123  A    between atoms: _295  and  _296
REMARK  124  A    between atoms: _299  and  _301
REMARK  125  A    between atoms: _301  and  _302
REMARK  126  A    between atoms: _304  and  _306
REMARK  127  A    between atoms: _306  and  _307
REMARK  128  A    between atoms: _310  and  _312
REMARK  129  A    between atoms: _312  and  _313
REMARK  130  A    between atoms: _312  and  _315
REMARK  131  A    between atoms: _315  and  _316
REMARK  132  A    between atoms: _319  and  _321
REMARK  133  A    between atoms: _321  and  _322
REMARK  134  A    between atoms: _321  and  _324
REMARK  135  A    between atoms: _324  and  _325
REMARK  136  A    between atoms: _328  and  _330
REMARK  137  A    between atoms: _330  and  _331
REMARK  138  A    between atoms: _330  and  _333
REMARK  139  A    between atoms: _333  and  _334
REMARK  140  A    between atoms: _336  and  _338
REMARK  141  A    between atoms: _338  and  _339
REMARK  142  A    between atoms: _338  and  _341
REMARK  143  A    between atoms: _341  and  _342
REMARK  144  A    between atoms: _345  and  _347
REMARK  145  A    between atoms: _347  and  _348
REMARK  146  A    between atoms: _347  and  _350
REMARK  147  A    between atoms: _350  and  _351
REMARK  148  A    between atoms: _351  and  _352
REMARK  149  A    between atoms: _352  and  _353
REMARK  150  A    between atoms: _353  and  _354
REMARK  151  A    between atoms: _358  and  _360
REMARK  152  A    between atoms: _360  and  _361
REMARK  153  A    between atoms: _360  and  _363
REMARK  154  A    between atoms: _363  and  _364
REMARK  155  A    between atoms: _364  and  _365
REMARK  156  A    between atoms: _367  and  _369
REMARK  157  A    between atoms: _369  and  _370
REMARK  158  A    between atoms: _369  and  _372
REMARK  159  A    between atoms: _375  and  _377
REMARK  160  A    between atoms: _377  and  _378
REMARK  161  A    between atoms: _380  and  _382
REMARK  162  A    between atoms: _382  and  _383
REMARK  163  A    between atoms: _385  and  _387
REMARK  164  A    between atoms: _387  and  _388
REMARK  165  A    between atoms: _387  and  _390
REMARK  166  A    between atoms: _390  and  _391
REMARK  167  A    between atoms: _394  and  _396
REMARK  168  A    between atoms: _396  and  _397
REMARK  169  A    between atoms: _399  and  _401
REMARK  170  A    between atoms: _401  and  _402
REMARK  171  A    between atoms: _404  and  _406
REMARK  172  A    between atoms: _406  and  _407
REMARK  173  A    between atoms: _406  and  _409
REMARK  174  A    between atoms: _409  and  _410
REMARK  175  A    between atoms: _416  and  _418
REMARK  176  A    between atoms: _418  and  _419
REMARK  177  A    between atoms: _418  and  _421
REMARK  178  A    between atoms: _421  and  _422
REMARK  179  A    between atoms: _425  and  _427
REMARK  180  A    between atoms: _427  and  _428
REMARK  181  A    between atoms: _427  and  _430
REMARK  182  A    between atoms: _433  and  _435
REMARK  183  A    between atoms: _435  and  _436
REMARK  184  A    between atoms: _435  and  _438
REMARK  185  A    between atoms: _438  and  _439
REMARK  186  A    between atoms: _442  and  _444
REMARK  187  A    between atoms: _444  and  _445
REMARK  188  A    between atoms: _444  and  _447
REMARK  189  A    between atoms: _447  and  _448
REMARK  190  A    between atoms: _452  and  _453
REMARK  191  A    between atoms: _458  and  _460
REMARK  192  A    between atoms: _460  and  _461
REMARK  193  A    between atoms: _460  and  _463
REMARK  194  A    between atoms: _463  and  _464
REMARK  195  A    between atoms: _467  and  _469
REMARK  196  A    between atoms: _469  and  _470
REMARK  197  A    between atoms: _469  and  _472
REMARK  198  A    between atoms: _472  and  _473
REMARK  199  A    between atoms: _478  and  _480
REMARK  200  A    between atoms: _480  and  _481
REMARK  201  A    between atoms: _480  and  _483
REMARK  202  A    between atoms: _483  and  _484
REMARK  203  A    between atoms: _487  and  _489
REMARK  204  A    between atoms: _489  and  _490
REMARK  205  A    between atoms: _489  and  _492
REMARK  206  A    between atoms: _492  and  _493
REMARK  207  A    between atoms: _496  and  _498
REMARK  208  A    between atoms: _498  and  _499
REMARK  209  A    between atoms: _501  and  _503
REMARK  210  A    between atoms: _503  and  _504
REMARK  211  A    between atoms: _503  and  _506
REMARK  212  A    between atoms: _506  and  _507
REMARK  213  A    between atoms: _507  and  _508
REMARK  214  A    between atoms: _508  and  _509
REMARK                            x       y       z     vdW  Elec       q    Type
REMARK                         _______ _______ _______ _____ _____    ______ ____
ROOT
ATOM      1  CA  LEU A   1      -5.775  26.398  29.459  0.00  0.00    +0.133 C 
ENDROOT
BRANCH   1   2
ATOM      2  N   LEU A   1      -4.650  26.362  30.380  0.00  0.00    -0.239 NA
ATOM      3  H   LEU A   1      -4.259  25.424  30.601  0.00  0.00    +0.142 HD
ENDBRANCH   1   2
BRANCH   1   4
ATOM      4  C   LEU A   1      -7.070  26.298  30.262  0.00  0.00    +0.224 C 
ATOM      5  O   LEU A   1      -7.128  25.442  31.160  0.00  0.00    -0.287 OA
ENDBRANCH   1   4
BRANCH   1   6
ATOM      6  CB  LEU A   1      -5.596  25.196  28.507  0.00  0.00    +0.025 C 
BRANCH   6   7
ATOM      7  CG  LEU A   1      -6.685  24.630  27.597  0.00  0.00    +0.002 C 
ATOM      8  CD2 LEU A   1      -6.341  23.193  27.258  0.00  0.00    +0.000 C 
ATOM      9  CD1 LEU A   1      -6.742  25.382  26.297  0.00  0.00    +0.000 C 
ENDBRANCH   6   7
ENDBRANCH   1   6
TORSDOF 4
REMARK  Name = ../refined-set-2016/1bdq/1bdq_pocket.pdb
REMARK  214 active torsions:
REMARK  status: ('A' for Active; 'I' for Inactive)
REMARK    1  A    between atoms: _1  and  _3
REMARK    2  A    between atoms: _3  and  _4
REMARK    3  A    between atoms: _3  and  _6
REMARK    4  A    between atoms: _6  and  _7
REMARK    5  A    between atoms: _7  and  _8
REMARK    6  A    between atoms: _8  and  _9
REMARK    7  A    between atoms: _18  and  _20
REMARK    8  A    between atoms: _20  and  _21
REMARK    9  A    between atoms: _20  and  _23
REMARK   10  A    between atoms: _23  and  _24
REMARK   11  A    between atoms: _27  and  _29
REMARK   12  A    between atoms: _29  and  _30
REMARK   13  A    between atoms: _29  and  _32
REMARK   14  A    between atoms: _32  and  _33
REMARK   15  A    between atoms: _36  and  _38
REMARK   16  A    between atoms: _38  and  _39
REMARK   17  A    between atoms: _38  and  _41
REMARK   18  A    between atoms: _41  and  _42
REMARK   19  A    between atoms: _45  and  _47
REMARK   20  A    between atoms: _47  and  _48
REMARK   21  A    between atoms: _50  and  _52
REMARK   22  A    between atoms: _52  and  _53
REMARK   23  A    between atoms: _56  and  _58
REMARK   24  A    between atoms: _58  and  _59
REMARK   25  A    between atoms: _58  and  _61
REMARK   26  A    between atoms: _61  and  _62
REMARK   27  A    between atoms: _65  and  _67
REMARK   28  A    between atoms: _67  and  _68
REMARK   29  A    between atoms: _67  and  _70
REMARK   30  A    between atoms: _70  and  _71
REMARK   31  A    between atoms: _74  and  _76
REMARK   32  A    between atoms: _76  and  _77
REMARK   33  A    between atoms: _76  and  _79
REMARK   34  A    between atoms: _79  and  _80
REMARK   35  A    between atoms: _82  and  _84
REMARK   36  A    between atoms: _84  and  _85
REMARK   37  A    between atoms: _84  and  _87
REMARK   38  A    between atoms: _87  and  _88
REMARK   39  A    between atoms: _91  and  _93
REMARK   40  A    between atoms: _93  and  _94
REMARK   41  A    between atoms: _93  and  _96
REMARK   42  A    between atoms: _96  and  _97
REMARK   43  A    between atoms: _97  and  _98
REMARK   44  A    between atoms: _98  and  _99
REMARK   45  A    between atoms: _99  and  _100
REMARK   46  A    between atoms: _104  and  _106
REMARK   47  A    between atoms: _106  and  _107
REMARK   48  A    between atoms: _106  and  _109
REMARK   49  A    between atoms: _112  and  _114
REMARK   50  A    between atoms: _114  and  _115
REMARK   51  A    between atoms: _117  and  _119
REMARK   52  A    between atoms: _119  and  _120
REMARK   53  A    between atoms: _122  and  _124
REMARK   54  A    between atoms: _124  and  _125
REMARK   55  A    between atoms: _124  and  _127
REMARK   56  A    between atoms: _127  and  _128
REMARK   57  A    between atoms: _131  and  _133
REMARK   58  A    between atoms: _133  and  _134
REMARK   59  A    between atoms: _136  and  _138
REMARK   60  A    between atoms: _138  and  _139
REMARK   61  A    between atoms: _141  and  _143
REMARK   62  A    between atoms: _143  and  _144
REMARK   63  A    between atoms: _143  and  _146
REMARK   64  A    between atoms: _146  and  _147
REMARK   65  A    between atoms: _150  and  _152
REMARK   66  A    between atoms: _152  and  _153
REMARK   67  A    between atoms: _152  and  _155
REMARK   68  A    between atoms: _155  and  _156
REMARK   69  A    between atoms: _159  and  _161
REMARK   70  A    between atoms: _161  and  _162
REMARK   71  A    between atoms: _161  and  _164
REMARK   72  A    between atoms: _164  and  _165
REMARK   73  A    between atoms: _169  and  _170
REMARK   74  A    between atoms: _175  and  _177
REMARK   75  A    between atoms: _177  and  _178
REMARK   76  A    between atoms: _177  and  _180
REMARK   77  A    between atoms: _180  and  _181
REMARK   78  A    between atoms: _184  and  _186
REMARK   79  A    between atoms: _186  and  _187
REMARK   80  A    between atoms: _186  and  _189
REMARK   81  A    between atoms: _189  and  _190
REMARK   82  A    between atoms: _195  and  _197
REMARK   83  A    between atoms: _197  and  _198
REMARK   84  A    between atoms: _197  and  _200
REMARK   85  A    between atoms: _200  and  _201
REMARK   86  A    between atoms: _204  and  _206
REMARK   87  A    between atoms: _206  and  _207
REMARK   88  A    between atoms: _206  and  _209
REMARK   89  A    between atoms: _209  and  _210
REMARK   90  A    between atoms: _213  and  _215
REMARK   91  A    between atoms: _215  and  _216
REMARK   92  A    between atoms: _218  and  _220
REMARK   93  A    between atoms: _220  and  _221
REMARK   94  A    between atoms: _220  and  _223
REMARK   95  A    between atoms: _223  and  _224
REMARK   96  A    between atoms: _224  and  _225
REMARK   97  A    between atoms: _225  and  _226
REMARK   98  A    between atoms: _235  and  _237
REMARK   99  A    between atoms: _237  and  _238
REMARK  100  A    between atoms: _237  and  _240
REMARK  101  A    between atoms: _240  and  _241
REMARK  102  A    between atoms: _246  and  _248
REMARK  103  A    between atoms: _248  and  _249
REMARK  104  A    between atoms: _248  and  _251
REMARK  105  A    between atoms: _251  and  _252
REMARK  106  A    between atoms: _252  and  _253
REMARK  107  A    between atoms: _253  and  _254
REMARK  108  A    between atoms: _263  and  _265
REMARK  109  A    between atoms: _265  and  _266
REMARK  110  A    between atoms: _265  and  _268
REMARK  111  A    between atoms: _268  and  _269
REMARK  112  A    between atoms: _272  and  _274
REMARK  113  A    between atoms: _274  and  _275
REMARK  114  A    between atoms: _274  and  _277
REMARK  115  A    between atoms: _277  and  _278
REMARK  116  A    between atoms: _281  and  _283
REMARK  117  A    between atoms: _283  and  _284
REMARK  118  A    between atoms: _283  and  _286
REMARK  119  A    between atoms: _286  and  _287
REMARK  120  A    between atoms: _290  and  _292
REMARK  121  A    between atoms: _292  and  _293
REMARK  122  A    between atoms: _292  and  _295
REMARK  123  A    between atoms: _295  and  _296
REMARK  124  A    between atoms: _299  and  _301
REMARK  125  A    between atoms: _301  and  _302
REMARK  126  A    between atoms: _304  and  _306
REMARK  127  A    between atoms: _306  and  _307
REMARK  128  A    between atoms: _310  and  _312
REMARK  129  A    between atoms: _312  and  _313
REMARK  130  A    between atoms: _312  and  _315
REMARK  131  A    between atoms: _315  and  _316
REMARK  132  A    between atoms: _319  and  _321
REMARK  133  A    between atoms: _321  and  _322
REMARK  134  A    between atoms: _321  and  _324
REMARK  135  A    between atoms: _324  and  _325
REMARK  136  A    between atoms: _328  and  _330
REMARK  137  A    between atoms: _330  and  _331
REMARK  138  A    between atoms: _330  and  _333
REMARK  139  A    between atoms: _333  and  _334
REMARK  140  A    between atoms: _336  and  _338
REMARK  141  A    between atoms: _338  and  _339
REMARK  142  A    between atoms: _338  and  _341
REMARK  143  A    between atoms: _341  and  _342
REMARK  144  A    between atoms: _345  and  _347
REMARK  145  A    between atoms: _347  and  _348
REMARK  146  A    between atoms: _347  and  _350
REMARK  147  A    between atoms: _350  and  _351
REMARK  148  A    between atoms: _351  and  _352
REMARK  149  A    between atoms: _352  and  _353
REMARK  150  A    between atoms: _353  and  _354
REMARK  151  A    between atoms: _358  and  _360
REMARK  152  A    between atoms: _360  and  _361
REMARK  153  A    between atoms: _360  and  _363
REMARK  154  A    between atoms: _363  and  _364
REMARK  155  A    between atoms: _364  and  _365
REMARK  156  A    between atoms: _367  and  _369
REMARK  157  A    between atoms: _369  and  _370
REMARK  158  A    between atoms: _369  and  _372
REMARK  159  A    between atoms: _375  and  _377
REMARK  160  A    between atoms: _377  and  _378
REMARK  161  A    between atoms: _380  and  _382
REMARK  162  A    between atoms: _382  and  _383
REMARK  163  A    between atoms: _385  and  _387
REMARK  164  A    between atoms: _387  and  _388
REMARK  165  A    between atoms: _387  and  _390
REMARK  166  A    between atoms: _390  and  _391
REMARK  167  A    between atoms: _394  and  _396
REMARK  168  A    between atoms: _396  and  _397
REMARK  169  A    between atoms: _399  and  _401
REMARK  170  A    between atoms: _401  and  _402
REMARK  171  A    between atoms: _404  and  _406
REMARK  172  A    between atoms: _406  and  _407
REMARK  173  A    between atoms: _406  and  _409
REMARK  174  A    between atoms: _409  and  _410
REMARK  175  A    between atoms: _416  and  _418
REMARK  176  A    between atoms: _418  and  _419
REMARK  177  A    between atoms: _418  and  _421
REMARK  178  A    between atoms: _421  and  _422
REMARK  179  A    between atoms: _425  and  _427
REMARK  180  A    between atoms: _427  and  _428
REMARK  181  A    between atoms: _427  and  _430
REMARK  182  A    between atoms: _433  and  _435
REMARK  183  A    between atoms: _435  and  _436
REMARK  184  A    between atoms: _435  and  _438
REMARK  185  A    between atoms: _438  and  _439
REMARK  186  A    between atoms: _442  and  _444
REMARK  187  A    between atoms: _444  and  _445
REMARK  188  A    between atoms: _444  and  _447
REMARK  189  A    between atoms: _447  and  _448
REMARK  190  A    between atoms: _452  and  _453
REMARK  191  A    between atoms: _458  and  _460
REMARK  192  A    between atoms: _460  and  _461
REMARK  193  A    between atoms: _460  and  _463
REMARK  194  A    between atoms: _463  and  _464
REMARK  195  A    between atoms: _467  and  _469
REMARK  196  A    between atoms: _469  and  _470
REMARK  197  A    between atoms: _469  and  _472
REMARK  198  A    between atoms: _472  and  _473
REMARK  199  A    between atoms: _478  and  _480
REMARK  200  A    between atoms: _480  and  _481
REMARK  201  A    between atoms: _480  and  _483
REMARK  202  A    between atoms: _483  and  _484
REMARK  203  A    between atoms: _487  and  _489
REMARK  204  A    between atoms: _489  and  _490
REMARK  205  A    between atoms: _489  and  _492
REMARK  206  A    between atoms: _492  and  _493
REMARK  207  A    between atoms: _496  and  _498
REMARK  208  A    between atoms: _498  and  _499
REMARK  209  A    between atoms: _501  and  _503
REMARK  210  A    between atoms: _503  and  _504
REMARK  211  A    between atoms: _503  and  _506
REMARK  212  A    between atoms: _506  and  _507
REMARK  213  A    between atoms: _507  and  _508
REMARK  214  A    between atoms: _508  and  _509
REMARK                            x       y       z     vdW  Elec       q    Type
REMARK                         _______ _______ _______ _____ _____    ______ ____
ROOT
ATOM      1  CA  ASP A   5     -14.116  18.578  36.117  0.00  0.00    +0.160 C 
ENDROOT
BRANCH   1   3
ATOM      2  C   ALA A   4     -13.143  19.371  34.007  0.00  0.00    +0.241 C 
ATOM      3  N   ASP A   5     -13.473  18.382  34.818  0.00  0.00    -0.297 N 
ATOM      4  H   ASP A   5     -13.264  17.409  34.516  0.00  0.00    +0.150 HD
ATOM      5  O   ALA A   4     -13.429  20.532  34.241  0.00  0.00    -0.273 OA
BRANCH   2   6
ATOM      6  CA  ALA A   4     -12.470  19.007  32.702  0.00  0.00    +0.149 C 
ATOM      7  CB  ALA A   4     -11.085  19.618  32.634  0.00  0.00    +0.031 C 
BRANCH   6   9
ATOM      8  C   GLY A   3     -13.653  18.852  30.567  0.00  0.00    +0.243 C 
ATOM      9  N   ALA A   4     -13.288  19.540  31.638  0.00  0.00    -0.297 N 
ATOM     10  H   ALA A   4     -13.611  20.525  31.718  0.00  0.00    +0.150 HD
ATOM     11  O   GLY A   3     -13.343  17.675  30.383  0.00  0.00    -0.273 OA
BRANCH   8  12
ATOM     12  CA  GLY A   3     -14.464  19.614  29.551  0.00  0.00    +0.176 C 
BRANCH  12  15
ATOM     13  C   THR A   2     -15.098  21.900  30.204  0.00  0.00    +0.243 C 
ATOM     14  O   THR A   2     -16.127  21.539  30.764  0.00  0.00    -0.273 OA
ATOM     15  N   GLY A   3     -14.239  21.051  29.625  0.00  0.00    -0.295 N 
ATOM     16  H   GLY A   3     -13.368  21.437  29.208  0.00  0.00    +0.150 HD
BRANCH  13  17
ATOM     17  CA  THR A   2     -14.744  23.385  30.221  0.00  0.00    +0.176 C 
BRANCH  17  20
ATOM     18  C   ASP A   1     -12.330  23.306  30.615  0.00  0.00    +0.239 C 
ATOM     19  O   ASP A   1     -12.503  22.741  31.695  0.00  0.00    -0.274 OA
ATOM     20  N   THR A   2     -13.354  23.627  29.832  0.00  0.00    -0.295 N 
ATOM     21  H   THR A   2     -13.161  24.066  28.909  0.00  0.00    +0.150 HD
BRANCH  18  22
ATOM     22  CA  ASP A   1     -10.919  23.599  30.096  0.00  0.00    +0.156 C 
BRANCH  22  23
ATOM     23  N   ASP A   1     -10.308  24.787  30.679  0.00  0.00    -0.238 NA
ATOM     24  H   ASP A   1     -10.074  24.765  31.692  0.00  0.00    +0.142 HD
ENDBRANCH  22  23
BRANCH  22  25
ATOM     25  CB  ASP A   1      -9.989  22.434  30.388  0.00  0.00    +0.140 C 
BRANCH  25  26
ATOM     26  CG  ASP A   1     -10.056  21.219  29.491  0.00  0.00    +0.367 C 
ATOM     27  OD2 ASP A   1      -8.999  20.576  29.368  0.00  0.00    -0.246 OA
ATOM     28  OD1 ASP A   1     -11.114  20.889  28.917  0.00  0.00    -0.246 OA
ENDBRANCH  25  26
ENDBRANCH  22  25
ENDBRANCH  18  22
ENDBRANCH  17  20
BRANCH  17  29
ATOM     29  CB  THR A   2     -15.746  24.143  29.297  0.00  0.00    +0.137 C 
ATOM     30  CG2 THR A   2     -15.654  25.625  29.576  0.00  0.00    +0.034 C 
BRANCH  29  31
ATOM     31  OG1 THR A   2     -15.444  23.966  27.900  0.00  0.00    -0.382 OA
ATOM     32  HG1 THR A   2     -14.535  24.310  27.714  0.00  0.00    +0.210 HD
ENDBRANCH  29  31
ENDBRANCH  17  29
ENDBRANCH  13  17
ENDBRANCH  12  15
ENDBRANCH   8  12
ENDBRANCH   6   9
ENDBRANCH   2   6
ENDBRANCH   1   3
BRANCH   1  33
ATOM     33  C   ASP A   5     -13.115  19.065  37.138  0.00  0.00    +0.241 C 
ATOM     34  O   ASP A   5     -13.469  19.833  38.022  0.00  0.00    -0.273 OA
ATOM     35  N   ASP A   6     -11.909  18.526  37.031  0.00  0.00    -0.297 N 
ATOM     36  H   ASP A   6     -11.754  17.833  36.271  0.00  0.00    +0.150 HD
BRANCH  35  37
ATOM     37  CA  ASP A   6     -10.790  18.836  37.902  0.00  0.00    +0.160 C 
BRANCH  37  38
ATOM     38  C   ASP A   6      -9.693  19.600  37.163  0.00  0.00    +0.241 C 
ATOM     39  N   SER A   7      -8.862  20.277  37.954  0.00  0.00    -0.295 N 
ATOM     40  H   SER A   7      -9.027  20.232  38.980  0.00  0.00    +0.150 HD
ATOM     41  O   ASP A   6      -9.635  19.556  35.925  0.00  0.00    -0.273 OA
BRANCH  39  42
ATOM     42  CA  SER A   7      -7.742  21.073  37.484  0.00  0.00    +0.178 C 
BRANCH  42  43
ATOM     43  C   SER A   7      -6.499  20.199  37.626  0.00  0.00    +0.243 C 
ATOM     44  O   SER A   7      -6.349  19.580  38.681  0.00  0.00    -0.273 OA
ATOM     45  N   ILE A   8      -5.592  20.152  36.651  0.00  0.00    -0.298 N 
ATOM     46  H   ILE A   8      -5.754  20.746  35.812  0.00  0.00    +0.150 HD
BRANCH  45  47
ATOM     47  CA  ILE A   8      -4.381  19.323  36.675  0.00  0.00    +0.137 C 
BRANCH  47  48
ATOM     48  C   ILE A   8      -3.235  20.252  36.270  0.00  0.00    +0.227 C 
ATOM     49  O   ILE A   8      -3.391  20.945  35.261  0.00  0.00    -0.286 OA
ENDBRANCH  47  48
BRANCH  47  50
ATOM     50  CB  ILE A   8      -4.441  18.167  35.640  0.00  0.00    +0.026 C 
ATOM     51  CG2 ILE A   8      -3.432  17.099  36.042  0.00  0.00    +0.002 C 
BRANCH  50  52
ATOM     52  CG1 ILE A   8      -5.846  17.565  35.574  0.00  0.00    +0.002 C 
ATOM     53  CD1 ILE A   8      -6.174  16.827  34.297  0.00  0.00    +0.000 C 
ENDBRANCH  50  52
ENDBRANCH  47  50
ENDBRANCH  45  47
ENDBRANCH  42  43
BRANCH  42  54
ATOM     54  CB  SER A   7      -7.704  22.298  38.347  0.00  0.00    +0.166 C 
BRANCH  54  55
ATOM     55  OG  SER A   7      -8.945  22.956  38.187  0.00  0.00    -0.380 OA
ATOM     56  H   SER A   7      -9.676  22.352  38.469  0.00  0.00    +0.211 HD
ENDBRANCH  54  55
ENDBRANCH  42  54
ENDBRANCH  39  42
ENDBRANCH  37  38
BRANCH  37  57
ATOM     57  CB  ASP A   6     -10.245  17.529  38.475  0.00  0.00    +0.143 C 
BRANCH  57  58
ATOM     58  CG  ASP A   6     -11.122  16.903  39.549  0.00  0.00    +0.367 C 
ATOM     59  OD2 ASP A   6     -11.344  17.536  40.607  0.00  0.00    -0.246 OA
ATOM     60  OD1 ASP A   6     -11.577  15.760  39.346  0.00  0.00    -0.246 OA
ENDBRANCH  57  58
ENDBRANCH  37  57
ENDBRANCH  35  37
ENDBRANCH   1  33
BRANCH   1  61
ATOM     61  CB  ASP A   5     -14.667  17.294  36.704  0.00  0.00    +0.143 C 
BRANCH  61  62
ATOM     62  CG  ASP A   5     -15.366  16.377  35.737  0.00  0.00    +0.367 C 
ATOM     63  OD2 ASP A   5     -15.018  15.185  35.711  0.00  0.00    -0.246 OA
ATOM     64  OD1 ASP A   5     -16.261  16.832  35.009  0.00  0.00    -0.246 OA
ENDBRANCH  61  62
ENDBRANCH   1  61
TORSDOF 28
REMARK  Name = ../refined-set-2016/1bdq/1bdq_pocket.pdb
REMARK  214 active torsions:
REMARK  status: ('A' for Active; 'I' for Inactive)
REMARK    1  A    between atoms: _1  and  _3
REMARK    2  A    between atoms: _3  and  _4
REMARK    3  A    between atoms: _3  and  _6
REMARK    4  A    between atoms: _6  and  _7
REMARK    5  A    between atoms: _7  and  _8
REMARK    6  A    between atoms: _8  and  _9
REMARK    7  A    between atoms: _18  and  _20
REMARK    8  A    between atoms: _20  and  _21
REMARK    9  A    between atoms: _20  and  _23
REMARK   10  A    between atoms: _23  and  _24
REMARK   11  A    between atoms: _27  and  _29
REMARK   12  A    between atoms: _29  and  _30
REMARK   13  A    between atoms: _29  and  _32
REMARK   14  A    between atoms: _32  and  _33
REMARK   15  A    between atoms: _36  and  _38
REMARK   16  A    between atoms: _38  and  _39
REMARK   17  A    between atoms: _38  and  _41
REMARK   18  A    between atoms: _41  and  _42
REMARK   19  A    between atoms: _45  and  _47
REMARK   20  A    between atoms: _47  and  _48
REMARK   21  A    between atoms: _50  and  _52
REMARK   22  A    between atoms: _52  and  _53
REMARK   23  A    between atoms: _56  and  _58
REMARK   24  A    between atoms: _58  and  _59
REMARK   25  A    between atoms: _58  and  _61
REMARK   26  A    between atoms: _61  and  _62
REMARK   27  A    between atoms: _65  and  _67
REMARK   28  A    between atoms: _67  and  _68
REMARK   29  A    between atoms: _67  and  _70
REMARK   30  A    between atoms: _70  and  _71
REMARK   31  A    between atoms: _74  and  _76
REMARK   32  A    between atoms: _76  and  _77
REMARK   33  A    between atoms: _76  and  _79
REMARK   34  A    between atoms: _79  and  _80
REMARK   35  A    between atoms: _82  and  _84
REMARK   36  A    between atoms: _84  and  _85
REMARK   37  A    between atoms: _84  and  _87
REMARK   38  A    between atoms: _87  and  _88
REMARK   39  A    between atoms: _91  and  _93
REMARK   40  A    between atoms: _93  and  _94
REMARK   41  A    between atoms: _93  and  _96
REMARK   42  A    between atoms: _96  and  _97
REMARK   43  A    between atoms: _97  and  _98
REMARK   44  A    between atoms: _98  and  _99
REMARK   45  A    between atoms: _99  and  _100
REMARK   46  A    between atoms: _104  and  _106
REMARK   47  A    between atoms: _106  and  _107
REMARK   48  A    between atoms: _106  and  _109
REMARK   49  A    between atoms: _112  and  _114
REMARK   50  A    between atoms: _114  and  _115
REMARK   51  A    between atoms: _117  and  _119
REMARK   52  A    between atoms: _119  and  _120
REMARK   53  A    between atoms: _122  and  _124
REMARK   54  A    between atoms: _124  and  _125
REMARK   55  A    between atoms: _124  and  _127
REMARK   56  A    between atoms: _127  and  _128
REMARK   57  A    between atoms: _131  and  _133
REMARK   58  A    between atoms: _133  and  _134
REMARK   59  A    between atoms: _136  and  _138
REMARK   60  A    between atoms: _138  and  _139
REMARK   61  A    between atoms: _141  and  _143
REMARK   62  A    between atoms: _143  and  _144
REMARK   63  A    between atoms: _143  and  _146
REMARK   64  A    between atoms: _146  and  _147
REMARK   65  A    between atoms: _150  and  _152
REMARK   66  A    between atoms: _152  and  _153
REMARK   67  A    between atoms: _152  and  _155
REMARK   68  A    between atoms: _155  and  _156
REMARK   69  A    between atoms: _159  and  _161
REMARK   70  A    between atoms: _161  and  _162
REMARK   71  A    between atoms: _161  and  _164
REMARK   72  A    between atoms: _164  and  _165
REMARK   73  A    between atoms: _169  and  _170
REMARK   74  A    between atoms: _175  and  _177
REMARK   75  A    between atoms: _177  and  _178
REMARK   76  A    between atoms: _177  and  _180
REMARK   77  A    between atoms: _180  and  _181
REMARK   78  A    between atoms: _184  and  _186
REMARK   79  A    between atoms: _186  and  _187
REMARK   80  A    between atoms: _186  and  _189
REMARK   81  A    between atoms: _189  and  _190
REMARK   82  A    between atoms: _195  and  _197
REMARK   83  A    between atoms: _197  and  _198
REMARK   84  A    between atoms: _197  and  _200
REMARK   85  A    between atoms: _200  and  _201
REMARK   86  A    between atoms: _204  and  _206
REMARK   87  A    between atoms: _206  and  _207
REMARK   88  A    between atoms: _206  and  _209
REMARK   89  A    between atoms: _209  and  _210
REMARK   90  A    between atoms: _213  and  _215
REMARK   91  A    between atoms: _215  and  _216
REMARK   92  A    between atoms: _218  and  _220
REMARK   93  A    between atoms: _220  and  _221
REMARK   94  A    between atoms: _220  and  _223
REMARK   95  A    between atoms: _223  and  _224
REMARK   96  A    between atoms: _224  and  _225
REMARK   97  A    between atoms: _225  and  _226
REMARK   98  A    between atoms: _235  and  _237
REMARK   99  A    between atoms: _237  and  _238
REMARK  100  A    between atoms: _237  and  _240
REMARK  101  A    between atoms: _240  and  _241
REMARK  102  A    between atoms: _246  and  _248
REMARK  103  A    between atoms: _248  and  _249
REMARK  104  A    between atoms: _248  and  _251
REMARK  105  A    between atoms: _251  and  _252
REMARK  106  A    between atoms: _252  and  _253
REMARK  107  A    between atoms: _253  and  _254
REMARK  108  A    between atoms: _263  and  _265
REMARK  109  A    between atoms: _265  and  _266
REMARK  110  A    between atoms: _265  and  _268
REMARK  111  A    between atoms: _268  and  _269
REMARK  112  A    between atoms: _272  and  _274
REMARK  113  A    between atoms: _274  and  _275
REMARK  114  A    between atoms: _274  and  _277
REMARK  115  A    between atoms: _277  and  _278
REMARK  116  A    between atoms: _281  and  _283
REMARK  117  A    between atoms: _283  and  _284
REMARK  118  A    between atoms: _283  and  _286
REMARK  119  A    between atoms: _286  and  _287
REMARK  120  A    between atoms: _290  and  _292
REMARK  121  A    between atoms: _292  and  _293
REMARK  122  A    between atoms: _292  and  _295
REMARK  123  A    between atoms: _295  and  _296
REMARK  124  A    between atoms: _299  and  _301
REMARK  125  A    between atoms: _301  and  _302
REMARK  126  A    between atoms: _304  and  _306
REMARK  127  A    between atoms: _306  and  _307
REMARK  128  A    between atoms: _310  and  _312
REMARK  129  A    between atoms: _312  and  _313
REMARK  130  A    between atoms: _312  and  _315
REMARK  131  A    between atoms: _315  and  _316
REMARK  132  A    between atoms: _319  and  _321
REMARK  133  A    between atoms: _321  and  _322
REMARK  134  A    between atoms: _321  and  _324
REMARK  135  A    between atoms: _324  and  _325
REMARK  136  A    between atoms: _328  and  _330
REMARK  137  A    between atoms: _330  and  _331
REMARK  138  A    between atoms: _330  and  _333
REMARK  139  A    between atoms: _333  and  _334
REMARK  140  A    between atoms: _336  and  _338
REMARK  141  A    between atoms: _338  and  _339
REMARK  142  A    between atoms: _338  and  _341
REMARK  143  A    between atoms: _341  and  _342
REMARK  144  A    between atoms: _345  and  _347
REMARK  145  A    between atoms: _347  and  _348
REMARK  146  A    between atoms: _347  and  _350
REMARK  147  A    between atoms: _350  and  _351
REMARK  148  A    between atoms: _351  and  _352
REMARK  149  A    between atoms: _352  and  _353
REMARK  150  A    between atoms: _353  and  _354
REMARK  151  A    between atoms: _358  and  _360
REMARK  152  A    between atoms: _360  and  _361
REMARK  153  A    between atoms: _360  and  _363
REMARK  154  A    between atoms: _363  and  _364
REMARK  155  A    between atoms: _364  and  _365
REMARK  156  A    between atoms: _367  and  _369
REMARK  157  A    between atoms: _369  and  _370
REMARK  158  A    between atoms: _369  and  _372
REMARK  159  A    between atoms: _375  and  _377
REMARK  160  A    between atoms: _377  and  _378
REMARK  161  A    between atoms: _380  and  _382
REMARK  162  A    between atoms: _382  and  _383
REMARK  163  A    between atoms: _385  and  _387
REMARK  164  A    between atoms: _387  and  _388
REMARK  165  A    between atoms: _387  and  _390
REMARK  166  A    between atoms: _390  and  _391
REMARK  167  A    between atoms: _394  and  _396
REMARK  168  A    between atoms: _396  and  _397
REMARK  169  A    between atoms: _399  and  _401
REMARK  170  A    between atoms: _401  and  _402
REMARK  171  A    between atoms: _404  and  _406
REMARK  172  A    between atoms: _406  and  _407
REMARK  173  A    between atoms: _406  and  _409
REMARK  174  A    between atoms: _409  and  _410
REMARK  175  A    between atoms: _416  and  _418
REMARK  176  A    between atoms: _418  and  _419
REMARK  177  A    between atoms: _418  and  _421
REMARK  178  A    between atoms: _421  and  _422
REMARK  179  A    between atoms: _425  and  _427
REMARK  180  A    between atoms: _427  and  _428
REMARK  181  A    between atoms: _427  and  _430
REMARK  182  A    between atoms: _433  and  _435
REMARK  183  A    between atoms: _435  and  _436
REMARK  184  A    between atoms: _435  and  _438
REMARK  185  A    between atoms: _438  and  _439
REMARK  186  A    between atoms: _442  and  _444
REMARK  187  A    between atoms: _444  and  _445
REMARK  188  A    between atoms: _444  and  _447
REMARK  189  A    between atoms: _447  and  _448
REMARK  190  A    between atoms: _452  and  _453
REMARK  191  A    between atoms: _458  and  _460
REMARK  192  A    between atoms: _460  and  _461
REMARK  193  A    between atoms: _460  and  _463
REMARK  194  A    between atoms: _463  and  _464
REMARK  195  A    between atoms: _467  and  _469
REMARK  196  A    between atoms: _469  and  _470
REMARK  197  A    between atoms: _469  and  _472
REMARK  198  A    between atoms: _472  and  _473
REMARK  199  A    between atoms: _478  and  _480
REMARK  200  A    between atoms: _480  and  _481
REMARK  201  A    between atoms: _480  and  _483
REMARK  202  A    between atoms: _483  and  _484
REMARK  203  A    between atoms: _487  and  _489
REMARK  204  A    between atoms: _489  and  _490
REMARK  205  A    between atoms: _489  and  _492
REMARK  206  A    between atoms: _492  and  _493
REMARK  207  A    between atoms: _496  and  _498
REMARK  208  A    between atoms: _498  and  _499
REMARK  209  A    between atoms: _501  and  _503
REMARK  210  A    between atoms: _503  and  _504
REMARK  211  A    between atoms: _503  and  _506
REMARK  212  A    between atoms: _506  and  _507
REMARK  213  A    between atoms: _507  and  _508
REMARK  214  A    between atoms: _508  and  _509
REMARK                            x       y       z     vdW  Elec       q    Type
REMARK                         _______ _______ _______ _____ _____    ______ ____
ROOT
ATOM      1  CG  LYS A   1      -8.538  11.913  42.418  0.00  0.00    -0.000 C 
ENDROOT
BRANCH   1   2
ATOM      2  CB  LYS A   1      -7.079  11.832  42.774  0.00  0.00    +0.025 C 
BRANCH   2   3
ATOM      3  CA  LYS A   1      -6.737  10.357  42.993  0.00  0.00    +0.133 C 
BRANCH   3   4
ATOM      4  N   LYS A   1      -5.659  10.214  43.951  0.00  0.00    -0.239 NA
ATOM      5  H   LYS A   1      -4.707  10.007  43.587  0.00  0.00    +0.142 HD
ENDBRANCH   3   4
BRANCH   3   6
ATOM      6  C   LYS A   1      -6.213   9.736  41.682  0.00  0.00    +0.224 C 
ATOM      7  O   LYS A   1      -5.041   9.901  41.314  0.00  0.00    -0.287 OA
ENDBRANCH   3   6
ENDBRANCH   2   3
ENDBRANCH   1   2
BRANCH   1   8
ATOM      8  CD  LYS A   1      -9.048  13.323  42.287  0.00  0.00    -0.024 C 
BRANCH   8   9
ATOM      9  CE  LYS A   1     -10.555  13.297  42.153  0.00  0.00    -0.086 C 
BRANCH   9  10
ATOM     10  NZ  LYS A   1     -11.004  12.517  40.961  0.00  0.00    +0.380 N 
ATOM     11  HZ1 LYS A   1     -10.670  11.536  41.045  0.00  0.00    -0.089 HD
ATOM     12  HZ2 LYS A   1     -12.043  12.528  40.912  0.00  0.00    -0.089 HD
ATOM     13  HZ3 LYS A   1     -10.611  12.946  40.099  0.00  0.00    -0.089 HD
ENDBRANCH   9  10
ENDBRANCH   8   9
ENDBRANCH   1   8
TORSDOF 7
REMARK  Name = ../refined-set-2016/1bdq/1bdq_pocket.pdb
REMARK  214 active torsions:
REMARK  status: ('A' for Active; 'I' for Inactive)
REMARK    1  A    between atoms: _1  and  _3
REMARK    2  A    between atoms: _3  and  _4
REMARK    3  A    between atoms: _3  and  _6
REMARK    4  A    between atoms: _6  and  _7
REMARK    5  A    between atoms: _7  and  _8
REMARK    6  A    between atoms: _8  and  _9
REMARK    7  A    between atoms: _18  and  _20
REMARK    8  A    between atoms: _20  and  _21
REMARK    9  A    between atoms: _20  and  _23
REMARK   10  A    between atoms: _23  and  _24
REMARK   11  A    between atoms: _27  and  _29
REMARK   12  A    between atoms: _29  and  _30
REMARK   13  A    between atoms: _29  and  _32
REMARK   14  A    between atoms: _32  and  _33
REMARK   15  A    between atoms: _36  and  _38
REMARK   16  A    between atoms: _38  and  _39
REMARK   17  A    between atoms: _38  and  _41
REMARK   18  A    between atoms: _41  and  _42
REMARK   19  A    between atoms: _45  and  _47
REMARK   20  A    between atoms: _47  and  _48
REMARK   21  A    between atoms: _50  and  _52
REMARK   22  A    between atoms: _52  and  _53
REMARK   23  A    between atoms: _56  and  _58
REMARK   24  A    between atoms: _58  and  _59
REMARK   25  A    between atoms: _58  and  _61
REMARK   26  A    between atoms: _61  and  _62
REMARK   27  A    between atoms: _65  and  _67
REMARK   28  A    between atoms: _67  and  _68
REMARK   29  A    between atoms: _67  and  _70
REMARK   30  A    between atoms: _70  and  _71
REMARK   31  A    between atoms: _74  and  _76
REMARK   32  A    between atoms: _76  and  _77
REMARK   33  A    between atoms: _76  and  _79
REMARK   34  A    between atoms: _79  and  _80
REMARK   35  A    between atoms: _82  and  _84
REMARK   36  A    between atoms: _84  and  _85
REMARK   37  A    between atoms: _84  and  _87
REMARK   38  A    between atoms: _87  and  _88
REMARK   39  A    between atoms: _91  and  _93
REMARK   40  A    between atoms: _93  and  _94
REMARK   41  A    between atoms: _93  and  _96
REMARK   42  A    between atoms: _96  and  _97
REMARK   43  A    between atoms: _97  and  _98
REMARK   44  A    between atoms: _98  and  _99
REMARK   45  A    between atoms: _99  and  _100
REMARK   46  A    between atoms: _104  and  _106
REMARK   47  A    between atoms: _106  and  _107
REMARK   48  A    between atoms: _106  and  _109
REMARK   49  A    between atoms: _112  and  _114
REMARK   50  A    between atoms: _114  and  _115
REMARK   51  A    between atoms: _117  and  _119
REMARK   52  A    between atoms: _119  and  _120
REMARK   53  A    between atoms: _122  and  _124
REMARK   54  A    between atoms: _124  and  _125
REMARK   55  A    between atoms: _124  and  _127
REMARK   56  A    between atoms: _127  and  _128
REMARK   57  A    between atoms: _131  and  _133
REMARK   58  A    between atoms: _133  and  _134
REMARK   59  A    between atoms: _136  and  _138
REMARK   60  A    between atoms: _138  and  _139
REMARK   61  A    between atoms: _141  and  _143
REMARK   62  A    between atoms: _143  and  _144
REMARK   63  A    between atoms: _143  and  _146
REMARK   64  A    between atoms: _146  and  _147
REMARK   65  A    between atoms: _150  and  _152
REMARK   66  A    between atoms: _152  and  _153
REMARK   67  A    between atoms: _152  and  _155
REMARK   68  A    between atoms: _155  and  _156
REMARK   69  A    between atoms: _159  and  _161
REMARK   70  A    between atoms: _161  and  _162
REMARK   71  A    between atoms: _161  and  _164
REMARK   72  A    between atoms: _164  and  _165
REMARK   73  A    between atoms: _169  and  _170
REMARK   74  A    between atoms: _175  and  _177
REMARK   75  A    between atoms: _177  and  _178
REMARK   76  A    between atoms: _177  and  _180
REMARK   77  A    between atoms: _180  and  _181
REMARK   78  A    between atoms: _184  and  _186
REMARK   79  A    between atoms: _186  and  _187
REMARK   80  A    between atoms: _186  and  _189
REMARK   81  A    between atoms: _189  and  _190
REMARK   82  A    between atoms: _195  and  _197
REMARK   83  A    between atoms: _197  and  _198
REMARK   84  A    between atoms: _197  and  _200
REMARK   85  A    between atoms: _200  and  _201
REMARK   86  A    between atoms: _204  and  _206
REMARK   87  A    between atoms: _206  and  _207
REMARK   88  A    between atoms: _206  and  _209
REMARK   89  A    between atoms: _209  and  _210
REMARK   90  A    between atoms: _213  and  _215
REMARK   91  A    between atoms: _215  and  _216
REMARK   92  A    between atoms: _218  and  _220
REMARK   93  A    between atoms: _220  and  _221
REMARK   94  A    between atoms: _220  and  _223
REMARK   95  A    between atoms: _223  and  _224
REMARK   96  A    between atoms: _224  and  _225
REMARK   97  A    between atoms: _225  and  _226
REMARK   98  A    between atoms: _235  and  _237
REMARK   99  A    between atoms: _237  and  _238
REMARK  100  A    between atoms: _237  and  _240
REMARK  101  A    between atoms: _240  and  _241
REMARK  102  A    between atoms: _246  and  _248
REMARK  103  A    between atoms: _248  and  _249
REMARK  104  A    between atoms: _248  and  _251
REMARK  105  A    between atoms: _251  and  _252
REMARK  106  A    between atoms: _252  and  _253
REMARK  107  A    between atoms: _253  and  _254
REMARK  108  A    between atoms: _263  and  _265
REMARK  109  A    between atoms: _265  and  _266
REMARK  110  A    between atoms: _265  and  _268
REMARK  111  A    between atoms: _268  and  _269
REMARK  112  A    between atoms: _272  and  _274
REMARK  113  A    between atoms: _274  and  _275
REMARK  114  A    between atoms: _274  and  _277
REMARK  115  A    between atoms: _277  and  _278
REMARK  116  A    between atoms: _281  and  _283
REMARK  117  A    between atoms: _283  and  _284
REMARK  118  A    between atoms: _283  and  _286
REMARK  119  A    between atoms: _286  and  _287
REMARK  120  A    between atoms: _290  and  _292
REMARK  121  A    between atoms: _292  and  _293
REMARK  122  A    between atoms: _292  and  _295
REMARK  123  A    between atoms: _295  and  _296
REMARK  124  A    between atoms: _299  and  _301
REMARK  125  A    between atoms: _301  and  _302
REMARK  126  A    between atoms: _304  and  _306
REMARK  127  A    between atoms: _306  and  _307
REMARK  128  A    between atoms: _310  and  _312
REMARK  129  A    between atoms: _312  and  _313
REMARK  130  A    between atoms: _312  and  _315
REMARK  131  A    between atoms: _315  and  _316
REMARK  132  A    between atoms: _319  and  _321
REMARK  133  A    between atoms: _321  and  _322
REMARK  134  A    between atoms: _321  and  _324
REMARK  135  A    between atoms: _324  and  _325
REMARK  136  A    between atoms: _328  and  _330
REMARK  137  A    between atoms: _330  and  _331
REMARK  138  A    between atoms: _330  and  _333
REMARK  139  A    between atoms: _333  and  _334
REMARK  140  A    between atoms: _336  and  _338
REMARK  141  A    between atoms: _338  and  _339
REMARK  142  A    between atoms: _338  and  _341
REMARK  143  A    between atoms: _341  and  _342
REMARK  144  A    between atoms: _345  and  _347
REMARK  145  A    between atoms: _347  and  _348
REMARK  146  A    between atoms: _347  and  _350
REMARK  147  A    between atoms: _350  and  _351
REMARK  148  A    between atoms: _351  and  _352
REMARK  149  A    between atoms: _352  and  _353
REMARK  150  A    between atoms: _353  and  _354
REMARK  151  A    between atoms: _358  and  _360
REMARK  152  A    between atoms: _360  and  _361
REMARK  153  A    between atoms: _360  and  _363
REMARK  154  A    between atoms: _363  and  _364
REMARK  155  A    between atoms: _364  and  _365
REMARK  156  A    between atoms: _367  and  _369
REMARK  157  A    between atoms: _369  and  _370
REMARK  158  A    between atoms: _369  and  _372
REMARK  159  A    between atoms: _375  and  _377
REMARK  160  A    between atoms: _377  and  _378
REMARK  161  A    between atoms: _380  and  _382
REMARK  162  A    between atoms: _382  and  _383
REMARK  163  A    between atoms: _385  and  _387
REMARK  164  A    between atoms: _387  and  _388
REMARK  165  A    between atoms: _387  and  _390
REMARK  166  A    between atoms: _390  and  _391
REMARK  167  A    between atoms: _394  and  _396
REMARK  168  A    between atoms: _396  and  _397
REMARK  169  A    between atoms: _399  and  _401
REMARK  170  A    between atoms: _401  and  _402
REMARK  171  A    between atoms: _404  and  _406
REMARK  172  A    between atoms: _406  and  _407
REMARK  173  A    between atoms: _406  and  _409
REMARK  174  A    between atoms: _409  and  _410
REMARK  175  A    between atoms: _416  and  _418
REMARK  176  A    between atoms: _418  and  _419
REMARK  177  A    between atoms: _418  and  _421
REMARK  178  A    between atoms: _421  and  _422
REMARK  179  A    between atoms: _425  and  _427
REMARK  180  A    between atoms: _427  and  _428
REMARK  181  A    between atoms: _427  and  _430
REMARK  182  A    between atoms: _433  and  _435
REMARK  183  A    between atoms: _435  and  _436
REMARK  184  A    between atoms: _435  and  _438
REMARK  185  A    between atoms: _438  and  _439
REMARK  186  A    between atoms: _442  and  _444
REMARK  187  A    between atoms: _444  and  _445
REMARK  188  A    between atoms: _444  and  _447
REMARK  189  A    between atoms: _447  and  _448
REMARK  190  A    between atoms: _452  and  _453
REMARK  191  A    between atoms: _458  and  _460
REMARK  192  A    between atoms: _460  and  _461
REMARK  193  A    between atoms: _460  and  _463
REMARK  194  A    between atoms: _463  and  _464
REMARK  195  A    between atoms: _467  and  _469
REMARK  196  A    between atoms: _469  and  _470
REMARK  197  A    between atoms: _469  and  _472
REMARK  198  A    between atoms: _472  and  _473
REMARK  199  A    between atoms: _478  and  _480
REMARK  200  A    between atoms: _480  and  _481
REMARK  201  A    between atoms: _480  and  _483
REMARK  202  A    between atoms: _483  and  _484
REMARK  203  A    between atoms: _487  and  _489
REMARK  204  A    between atoms: _489  and  _490
REMARK  205  A    between atoms: _489  and  _492
REMARK  206  A    between atoms: _492  and  _493
REMARK  207  A    between atoms: _496  and  _498
REMARK  208  A    between atoms: _498  and  _499
REMARK  209  A    between atoms: _501  and  _503
REMARK  210  A    between atoms: _503  and  _504
REMARK  211  A    between atoms: _503  and  _506
REMARK  212  A    between atoms: _506  and  _507
REMARK  213  A    between atoms: _507  and  _508
REMARK  214  A    between atoms: _508  and  _509
REMARK                            x       y       z     vdW  Elec       q    Type
REMARK                         _______ _______ _______ _____ _____    ______ ____
ROOT
ATOM      1  C   GLY A   3      -9.801   9.865  29.303  0.00  0.00    +0.243 C 
ATOM      2  O   GLY A   3      -9.891   8.644  29.501  0.00  0.00    -0.273 OA
ATOM      3  N   ILE A   4      -9.704  10.408  28.093  0.00  0.00    -0.297 N 
ATOM      4  H   ILE A   4      -9.607  11.441  28.018  0.00  0.00    +0.150 HD
ENDROOT
BRANCH   1   5
ATOM      5  CA  GLY A   3      -9.824  10.877  30.438  0.00  0.00    +0.176 C 
BRANCH   5   8
ATOM      6  C   GLY A   2     -10.042  10.577  32.810  0.00  0.00    +0.243 C 
ATOM      7  O   GLY A   2     -11.047  11.262  33.042  0.00  0.00    -0.273 OA
ATOM      8  N   GLY A   3      -9.412  10.313  31.686  0.00  0.00    -0.295 N 
ATOM      9  H   GLY A   3      -8.590   9.676  31.705  0.00  0.00    +0.150 HD
BRANCH   6  10
ATOM     10  CA  GLY A   2      -9.315   9.810  33.851  0.00  0.00    +0.176 C 
BRANCH  10  13
ATOM     11  C   VAL A   1      -8.290  10.039  35.960  0.00  0.00    +0.238 C 
ATOM     12  O   VAL A   1      -7.318   9.370  35.586  0.00  0.00    -0.274 OA
ATOM     13  N   GLY A   2      -9.329  10.316  35.197  0.00  0.00    -0.296 N 
ATOM     14  H   GLY A   2     -10.127  10.878  35.555  0.00  0.00    +0.150 HD
BRANCH  11  15
ATOM     15  CA  VAL A   1      -8.361  10.591  37.375  0.00  0.00    +0.145 C 
BRANCH  15  16
ATOM     16  CB  VAL A   1      -7.906  12.096  37.526  0.00  0.00    +0.025 C 
ATOM     17  CG2 VAL A   1      -9.139  12.890  37.883  0.00  0.00    +0.002 C 
ATOM     18  CG1 VAL A   1      -7.248  12.673  36.282  0.00  0.00    +0.002 C 
ENDBRANCH  15  16
BRANCH  15  19
ATOM     19  N   VAL A   1      -7.424   9.817  38.160  0.00  0.00    -0.238 NA
ATOM     20  H   VAL A   1      -6.400   9.937  38.023  0.00  0.00    +0.142 HD
ENDBRANCH  15  19
ENDBRANCH  11  15
ENDBRANCH  10  13
ENDBRANCH   6  10
ENDBRANCH   5   8
ENDBRANCH   1   5
BRANCH   3  21
ATOM     21  CA  ILE A   4      -9.728   9.612  26.855  0.00  0.00    +0.149 C 
BRANCH  21  22
ATOM     22  C   ILE A   4      -8.259   9.218  26.714  0.00  0.00    +0.241 C 
ATOM     23  O   ILE A   4      -7.364  10.052  26.881  0.00  0.00    -0.273 OA
ATOM     24  N   GLY A   5      -8.039   7.997  26.276  0.00  0.00    -0.295 N 
ATOM     25  H   GLY A   5      -8.832   7.412  25.945  0.00  0.00    +0.150 HD
BRANCH  24  26
ATOM     26  CA  GLY A   5      -6.698   7.472  26.255  0.00  0.00    +0.176 C 
BRANCH  26  27
ATOM     27  C   GLY A   5      -6.640   6.536  27.443  0.00  0.00    +0.243 C 
ATOM     28  N   GLY A   6      -7.082   7.079  28.570  0.00  0.00    -0.296 N 
ATOM     29  H   GLY A   6      -7.277   8.101  28.584  0.00  0.00    +0.150 HD
ATOM     30  O   GLY A   5      -6.282   5.364  27.318  0.00  0.00    -0.273 OA
BRANCH  28  31
ATOM     31  CA  GLY A   6      -7.305   6.323  29.773  0.00  0.00    +0.163 C 
BRANCH  31  32
ATOM     32  C   GLY A   6      -7.019   7.133  30.991  0.00  0.00    +0.229 C 
ATOM     33  O   GLY A   6      -7.533   8.211  31.284  0.00  0.00    -0.286 OA
ENDBRANCH  31  32
ENDBRANCH  28  31
ENDBRANCH  26  27
ENDBRANCH  24  26
ENDBRANCH  21  22
BRANCH  21  34
ATOM     34  CB  ILE A   4      -9.994  10.393  25.533  0.00  0.00    +0.027 C 
ATOM     35  CG2 ILE A   4     -10.236   9.382  24.425  0.00  0.00    +0.002 C 
BRANCH  34  36
ATOM     36  CG1 ILE A   4     -11.135  11.389  25.688  0.00  0.00    +0.002 C 
ATOM     37  CD1 ILE A   4     -10.597  12.801  25.693  0.00  0.00    +0.000 C 
ENDBRANCH  34  36
ENDBRANCH  21  34
ENDBRANCH   3  21
TORSDOF 15
REMARK  Name = ../refined-set-2016/1bdq/1bdq_pocket.pdb
REMARK  214 active torsions:
REMARK  status: ('A' for Active; 'I' for Inactive)
REMARK    1  A    between atoms: _1  and  _3
REMARK    2  A    between atoms: _3  and  _4
REMARK    3  A    between atoms: _3  and  _6
REMARK    4  A    between atoms: _6  and  _7
REMARK    5  A    between atoms: _7  and  _8
REMARK    6  A    between atoms: _8  and  _9
REMARK    7  A    between atoms: _18  and  _20
REMARK    8  A    between atoms: _20  and  _21
REMARK    9  A    between atoms: _20  and  _23
REMARK   10  A    between atoms: _23  and  _24
REMARK   11  A    between atoms: _27  and  _29
REMARK   12  A    between atoms: _29  and  _30
REMARK   13  A    between atoms: _29  and  _32
REMARK   14  A    between atoms: _32  and  _33
REMARK   15  A    between atoms: _36  and  _38
REMARK   16  A    between atoms: _38  and  _39
REMARK   17  A    between atoms: _38  and  _41
REMARK   18  A    between atoms: _41  and  _42
REMARK   19  A    between atoms: _45  and  _47
REMARK   20  A    between atoms: _47  and  _48
REMARK   21  A    between atoms: _50  and  _52
REMARK   22  A    between atoms: _52  and  _53
REMARK   23  A    between atoms: _56  and  _58
REMARK   24  A    between atoms: _58  and  _59
REMARK   25  A    between atoms: _58  and  _61
REMARK   26  A    between atoms: _61  and  _62
REMARK   27  A    between atoms: _65  and  _67
REMARK   28  A    between atoms: _67  and  _68
REMARK   29  A    between atoms: _67  and  _70
REMARK   30  A    between atoms: _70  and  _71
REMARK   31  A    between atoms: _74  and  _76
REMARK   32  A    between atoms: _76  and  _77
REMARK   33  A    between atoms: _76  and  _79
REMARK   34  A    between atoms: _79  and  _80
REMARK   35  A    between atoms: _82  and  _84
REMARK   36  A    between atoms: _84  and  _85
REMARK   37  A    between atoms: _84  and  _87
REMARK   38  A    between atoms: _87  and  _88
REMARK   39  A    between atoms: _91  and  _93
REMARK   40  A    between atoms: _93  and  _94
REMARK   41  A    between atoms: _93  and  _96
REMARK   42  A    between atoms: _96  and  _97
REMARK   43  A    between atoms: _97  and  _98
REMARK   44  A    between atoms: _98  and  _99
REMARK   45  A    between atoms: _99  and  _100
REMARK   46  A    between atoms: _104  and  _106
REMARK   47  A    between atoms: _106  and  _107
REMARK   48  A    between atoms: _106  and  _109
REMARK   49  A    between atoms: _112  and  _114
REMARK   50  A    between atoms: _114  and  _115
REMARK   51  A    between atoms: _117  and  _119
REMARK   52  A    between atoms: _119  and  _120
REMARK   53  A    between atoms: _122  and  _124
REMARK   54  A    between atoms: _124  and  _125
REMARK   55  A    between atoms: _124  and  _127
REMARK   56  A    between atoms: _127  and  _128
REMARK   57  A    between atoms: _131  and  _133
REMARK   58  A    between atoms: _133  and  _134
REMARK   59  A    between atoms: _136  and  _138
REMARK   60  A    between atoms: _138  and  _139
REMARK   61  A    between atoms: _141  and  _143
REMARK   62  A    between atoms: _143  and  _144
REMARK   63  A    between atoms: _143  and  _146
REMARK   64  A    between atoms: _146  and  _147
REMARK   65  A    between atoms: _150  and  _152
REMARK   66  A    between atoms: _152  and  _153
REMARK   67  A    between atoms: _152  and  _155
REMARK   68  A    between atoms: _155  and  _156
REMARK   69  A    between atoms: _159  and  _161
REMARK   70  A    between atoms: _161  and  _162
REMARK   71  A    between atoms: _161  and  _164
REMARK   72  A    between atoms: _164  and  _165
REMARK   73  A    between atoms: _169  and  _170
REMARK   74  A    between atoms: _175  and  _177
REMARK   75  A    between atoms: _177  and  _178
REMARK   76  A    between atoms: _177  and  _180
REMARK   77  A    between atoms: _180  and  _181
REMARK   78  A    between atoms: _184  and  _186
REMARK   79  A    between atoms: _186  and  _187
REMARK   80  A    between atoms: _186  and  _189
REMARK   81  A    between atoms: _189  and  _190
REMARK   82  A    between atoms: _195  and  _197
REMARK   83  A    between atoms: _197  and  _198
REMARK   84  A    between atoms: _197  and  _200
REMARK   85  A    between atoms: _200  and  _201
REMARK   86  A    between atoms: _204  and  _206
REMARK   87  A    between atoms: _206  and  _207
REMARK   88  A    between atoms: _206  and  _209
REMARK   89  A    between atoms: _209  and  _210
REMARK   90  A    between atoms: _213  and  _215
REMARK   91  A    between atoms: _215  and  _216
REMARK   92  A    between atoms: _218  and  _220
REMARK   93  A    between atoms: _220  and  _221
REMARK   94  A    between atoms: _220  and  _223
REMARK   95  A    between atoms: _223  and  _224
REMARK   96  A    between atoms: _224  and  _225
REMARK   97  A    between atoms: _225  and  _226
REMARK   98  A    between atoms: _235  and  _237
REMARK   99  A    between atoms: _237  and  _238
REMARK  100  A    between atoms: _237  and  _240
REMARK  101  A    between atoms: _240  and  _241
REMARK  102  A    between atoms: _246  and  _248
REMARK  103  A    between atoms: _248  and  _249
REMARK  104  A    between atoms: _248  and  _251
REMARK  105  A    between atoms: _251  and  _252
REMARK  106  A    between atoms: _252  and  _253
REMARK  107  A    between atoms: _253  and  _254
REMARK  108  A    between atoms: _263  and  _265
REMARK  109  A    between atoms: _265  and  _266
REMARK  110  A    between atoms: _265  and  _268
REMARK  111  A    between atoms: _268  and  _269
REMARK  112  A    between atoms: _272  and  _274
REMARK  113  A    between atoms: _274  and  _275
REMARK  114  A    between atoms: _274  and  _277
REMARK  115  A    between atoms: _277  and  _278
REMARK  116  A    between atoms: _281  and  _283
REMARK  117  A    between atoms: _283  and  _284
REMARK  118  A    between atoms: _283  and  _286
REMARK  119  A    between atoms: _286  and  _287
REMARK  120  A    between atoms: _290  and  _292
REMARK  121  A    between atoms: _292  and  _293
REMARK  122  A    between atoms: _292  and  _295
REMARK  123  A    between atoms: _295  and  _296
REMARK  124  A    between atoms: _299  and  _301
REMARK  125  A    between atoms: _301  and  _302
REMARK  126  A    between atoms: _304  and  _306
REMARK  127  A    between atoms: _306  and  _307
REMARK  128  A    between atoms: _310  and  _312
REMARK  129  A    between atoms: _312  and  _313
REMARK  130  A    between atoms: _312  and  _315
REMARK  131  A    between atoms: _315  and  _316
REMARK  132  A    between atoms: _319  and  _321
REMARK  133  A    between atoms: _321  and  _322
REMARK  134  A    between atoms: _321  and  _324
REMARK  135  A    between atoms: _324  and  _325
REMARK  136  A    between atoms: _328  and  _330
REMARK  137  A    between atoms: _330  and  _331
REMARK  138  A    between atoms: _330  and  _333
REMARK  139  A    between atoms: _333  and  _334
REMARK  140  A    between atoms: _336  and  _338
REMARK  141  A    between atoms: _338  and  _339
REMARK  142  A    between atoms: _338  and  _341
REMARK  143  A    between atoms: _341  and  _342
REMARK  144  A    between atoms: _345  and  _347
REMARK  145  A    between atoms: _347  and  _348
REMARK  146  A    between atoms: _347  and  _350
REMARK  147  A    between atoms: _350  and  _351
REMARK  148  A    between atoms: _351  and  _352
REMARK  149  A    between atoms: _352  and  _353
REMARK  150  A    between atoms: _353  and  _354
REMARK  151  A    between atoms: _358  and  _360
REMARK  152  A    between atoms: _360  and  _361
REMARK  153  A    between atoms: _360  and  _363
REMARK  154  A    between atoms: _363  and  _364
REMARK  155  A    between atoms: _364  and  _365
REMARK  156  A    between atoms: _367  and  _369
REMARK  157  A    between atoms: _369  and  _370
REMARK  158  A    between atoms: _369  and  _372
REMARK  159  A    between atoms: _375  and  _377
REMARK  160  A    between atoms: _377  and  _378
REMARK  161  A    between atoms: _380  and  _382
REMARK  162  A    between atoms: _382  and  _383
REMARK  163  A    between atoms: _385  and  _387
REMARK  164  A    between atoms: _387  and  _388
REMARK  165  A    between atoms: _387  and  _390
REMARK  166  A    between atoms: _390  and  _391
REMARK  167  A    between atoms: _394  and  _396
REMARK  168  A    between atoms: _396  and  _397
REMARK  169  A    between atoms: _399  and  _401
REMARK  170  A    between atoms: _401  and  _402
REMARK  171  A    between atoms: _404  and  _406
REMARK  172  A    between atoms: _406  and  _407
REMARK  173  A    between atoms: _406  and  _409
REMARK  174  A    between atoms: _409  and  _410
REMARK  175  A    between atoms: _416  and  _418
REMARK  176  A    between atoms: _418  and  _419
REMARK  177  A    between atoms: _418  and  _421
REMARK  178  A    between atoms: _421  and  _422
REMARK  179  A    between atoms: _425  and  _427
REMARK  180  A    between atoms: _427  and  _428
REMARK  181  A    between atoms: _427  and  _430
REMARK  182  A    between atoms: _433  and  _435
REMARK  183  A    between atoms: _435  and  _436
REMARK  184  A    between atoms: _435  and  _438
REMARK  185  A    between atoms: _438  and  _439
REMARK  186  A    between atoms: _442  and  _444
REMARK  187  A    between atoms: _444  and  _445
REMARK  188  A    between atoms: _444  and  _447
REMARK  189  A    between atoms: _447  and  _448
REMARK  190  A    between atoms: _452  and  _453
REMARK  191  A    between atoms: _458  and  _460
REMARK  192  A    between atoms: _460  and  _461
REMARK  193  A    between atoms: _460  and  _463
REMARK  194  A    between atoms: _463  and  _464
REMARK  195  A    between atoms: _467  and  _469
REMARK  196  A    between atoms: _469  and  _470
REMARK  197  A    between atoms: _469  and  _472
REMARK  198  A    between atoms: _472  and  _473
REMARK  199  A    between atoms: _478  and  _480
REMARK  200  A    between atoms: _480  and  _481
REMARK  201  A    between atoms: _480  and  _483
REMARK  202  A    between atoms: _483  and  _484
REMARK  203  A    between atoms: _487  and  _489
REMARK  204  A    between atoms: _489  and  _490
REMARK  205  A    between atoms: _489  and  _492
REMARK  206  A    between atoms: _492  and  _493
REMARK  207  A    between atoms: _496  and  _498
REMARK  208  A    between atoms: _498  and  _499
REMARK  209  A    between atoms: _501  and  _503
REMARK  210  A    between atoms: _503  and  _504
REMARK  211  A    between atoms: _503  and  _506
REMARK  212  A    between atoms: _506  and  _507
REMARK  213  A    between atoms: _507  and  _508
REMARK  214  A    between atoms: _508  and  _509
REMARK                            x       y       z     vdW  Elec       q    Type
REMARK                         _______ _______ _______ _____ _____    ______ ____
ROOT
ATOM      1  CA  ILE A   1      -3.218   8.923  34.871  0.00  0.00    +0.133 C 
ENDROOT
BRANCH   1   2
ATOM      2  N   ILE A   1      -4.328   8.127  34.368  0.00  0.00    -0.239 NA
ATOM      3  H   ILE A   1      -5.132   7.967  35.008  0.00  0.00    +0.142 HD
ENDBRANCH   1   2
BRANCH   1   4
ATOM      4  C   ILE A   1      -3.313   8.926  36.379  0.00  0.00    +0.224 C 
ATOM      5  O   ILE A   1      -4.392   8.961  36.984  0.00  0.00    -0.287 OA
ENDBRANCH   1   4
BRANCH   1   6
ATOM      6  CB  ILE A   1      -3.152  10.449  34.463  0.00  0.00    +0.023 C 
ATOM      7  CG2 ILE A   1      -2.268  10.533  33.228  0.00  0.00    +0.002 C 
BRANCH   6   8
ATOM      8  CG1 ILE A   1      -4.545  11.088  34.307  0.00  0.00    +0.002 C 
ATOM      9  CD1 ILE A   1      -4.473  12.594  34.095  0.00  0.00    +0.000 C 
ENDBRANCH   6   8
ENDBRANCH   1   6
TORSDOF 4
REMARK  Name = ../refined-set-2016/1bdq/1bdq_pocket.pdb
REMARK  214 active torsions:
REMARK  status: ('A' for Active; 'I' for Inactive)
REMARK    1  A    between atoms: _1  and  _3
REMARK    2  A    between atoms: _3  and  _4
REMARK    3  A    between atoms: _3  and  _6
REMARK    4  A    between atoms: _6  and  _7
REMARK    5  A    between atoms: _7  and  _8
REMARK    6  A    between atoms: _8  and  _9
REMARK    7  A    between atoms: _18  and  _20
REMARK    8  A    between atoms: _20  and  _21
REMARK    9  A    between atoms: _20  and  _23
REMARK   10  A    between atoms: _23  and  _24
REMARK   11  A    between atoms: _27  and  _29
REMARK   12  A    between atoms: _29  and  _30
REMARK   13  A    between atoms: _29  and  _32
REMARK   14  A    between atoms: _32  and  _33
REMARK   15  A    between atoms: _36  and  _38
REMARK   16  A    between atoms: _38  and  _39
REMARK   17  A    between atoms: _38  and  _41
REMARK   18  A    between atoms: _41  and  _42
REMARK   19  A    between atoms: _45  and  _47
REMARK   20  A    between atoms: _47  and  _48
REMARK   21  A    between atoms: _50  and  _52
REMARK   22  A    between atoms: _52  and  _53
REMARK   23  A    between atoms: _56  and  _58
REMARK   24  A    between atoms: _58  and  _59
REMARK   25  A    between atoms: _58  and  _61
REMARK   26  A    between atoms: _61  and  _62
REMARK   27  A    between atoms: _65  and  _67
REMARK   28  A    between atoms: _67  and  _68
REMARK   29  A    between atoms: _67  and  _70
REMARK   30  A    between atoms: _70  and  _71
REMARK   31  A    between atoms: _74  and  _76
REMARK   32  A    between atoms: _76  and  _77
REMARK   33  A    between atoms: _76  and  _79
REMARK   34  A    between atoms: _79  and  _80
REMARK   35  A    between atoms: _82  and  _84
REMARK   36  A    between atoms: _84  and  _85
REMARK   37  A    between atoms: _84  and  _87
REMARK   38  A    between atoms: _87  and  _88
REMARK   39  A    between atoms: _91  and  _93
REMARK   40  A    between atoms: _93  and  _94
REMARK   41  A    between atoms: _93  and  _96
REMARK   42  A    between atoms: _96  and  _97
REMARK   43  A    between atoms: _97  and  _98
REMARK   44  A    between atoms: _98  and  _99
REMARK   45  A    between atoms: _99  and  _100
REMARK   46  A    between atoms: _104  and  _106
REMARK   47  A    between atoms: _106  and  _107
REMARK   48  A    between atoms: _106  and  _109
REMARK   49  A    between atoms: _112  and  _114
REMARK   50  A    between atoms: _114  and  _115
REMARK   51  A    between atoms: _117  and  _119
REMARK   52  A    between atoms: _119  and  _120
REMARK   53  A    between atoms: _122  and  _124
REMARK   54  A    between atoms: _124  and  _125
REMARK   55  A    between atoms: _124  and  _127
REMARK   56  A    between atoms: _127  and  _128
REMARK   57  A    between atoms: _131  and  _133
REMARK   58  A    between atoms: _133  and  _134
REMARK   59  A    between atoms: _136  and  _138
REMARK   60  A    between atoms: _138  and  _139
REMARK   61  A    between atoms: _141  and  _143
REMARK   62  A    between atoms: _143  and  _144
REMARK   63  A    between atoms: _143  and  _146
REMARK   64  A    between atoms: _146  and  _147
REMARK   65  A    between atoms: _150  and  _152
REMARK   66  A    between atoms: _152  and  _153
REMARK   67  A    between atoms: _152  and  _155
REMARK   68  A    between atoms: _155  and  _156
REMARK   69  A    between atoms: _159  and  _161
REMARK   70  A    between atoms: _161  and  _162
REMARK   71  A    between atoms: _161  and  _164
REMARK   72  A    between atoms: _164  and  _165
REMARK   73  A    between atoms: _169  and  _170
REMARK   74  A    between atoms: _175  and  _177
REMARK   75  A    between atoms: _177  and  _178
REMARK   76  A    between atoms: _177  and  _180
REMARK   77  A    between atoms: _180  and  _181
REMARK   78  A    between atoms: _184  and  _186
REMARK   79  A    between atoms: _186  and  _187
REMARK   80  A    between atoms: _186  and  _189
REMARK   81  A    between atoms: _189  and  _190
REMARK   82  A    between atoms: _195  and  _197
REMARK   83  A    between atoms: _197  and  _198
REMARK   84  A    between atoms: _197  and  _200
REMARK   85  A    between atoms: _200  and  _201
REMARK   86  A    between atoms: _204  and  _206
REMARK   87  A    between atoms: _206  and  _207
REMARK   88  A    between atoms: _206  and  _209
REMARK   89  A    between atoms: _209  and  _210
REMARK   90  A    between atoms: _213  and  _215
REMARK   91  A    between atoms: _215  and  _216
REMARK   92  A    between atoms: _218  and  _220
REMARK   93  A    between atoms: _220  and  _221
REMARK   94  A    between atoms: _220  and  _223
REMARK   95  A    between atoms: _223  and  _224
REMARK   96  A    between atoms: _224  and  _225
REMARK   97  A    between atoms: _225  and  _226
REMARK   98  A    between atoms: _235  and  _237
REMARK   99  A    between atoms: _237  and  _238
REMARK  100  A    between atoms: _237  and  _240
REMARK  101  A    between atoms: _240  and  _241
REMARK  102  A    between atoms: _246  and  _248
REMARK  103  A    between atoms: _248  and  _249
REMARK  104  A    between atoms: _248  and  _251
REMARK  105  A    between atoms: _251  and  _252
REMARK  106  A    between atoms: _252  and  _253
REMARK  107  A    between atoms: _253  and  _254
REMARK  108  A    between atoms: _263  and  _265
REMARK  109  A    between atoms: _265  and  _266
REMARK  110  A    between atoms: _265  and  _268
REMARK  111  A    between atoms: _268  and  _269
REMARK  112  A    between atoms: _272  and  _274
REMARK  113  A    between atoms: _274  and  _275
REMARK  114  A    between atoms: _274  and  _277
REMARK  115  A    between atoms: _277  and  _278
REMARK  116  A    between atoms: _281  and  _283
REMARK  117  A    between atoms: _283  and  _284
REMARK  118  A    between atoms: _283  and  _286
REMARK  119  A    between atoms: _286  and  _287
REMARK  120  A    between atoms: _290  and  _292
REMARK  121  A    between atoms: _292  and  _293
REMARK  122  A    between atoms: _292  and  _295
REMARK  123  A    between atoms: _295  and  _296
REMARK  124  A    between atoms: _299  and  _301
REMARK  125  A    between atoms: _301  and  _302
REMARK  126  A    between atoms: _304  and  _306
REMARK  127  A    between atoms: _306  and  _307
REMARK  128  A    between atoms: _310  and  _312
REMARK  129  A    between atoms: _312  and  _313
REMARK  130  A    between atoms: _312  and  _315
REMARK  131  A    between atoms: _315  and  _316
REMARK  132  A    between atoms: _319  and  _321
REMARK  133  A    between atoms: _321  and  _322
REMARK  134  A    between atoms: _321  and  _324
REMARK  135  A    between atoms: _324  and  _325
REMARK  136  A    between atoms: _328  and  _330
REMARK  137  A    between atoms: _330  and  _331
REMARK  138  A    between atoms: _330  and  _333
REMARK  139  A    between atoms: _333  and  _334
REMARK  140  A    between atoms: _336  and  _338
REMARK  141  A    between atoms: _338  and  _339
REMARK  142  A    between atoms: _338  and  _341
REMARK  143  A    between atoms: _341  and  _342
REMARK  144  A    between atoms: _345  and  _347
REMARK  145  A    between atoms: _347  and  _348
REMARK  146  A    between atoms: _347  and  _350
REMARK  147  A    between atoms: _350  and  _351
REMARK  148  A    between atoms: _351  and  _352
REMARK  149  A    between atoms: _352  and  _353
REMARK  150  A    between atoms: _353  and  _354
REMARK  151  A    between atoms: _358  and  _360
REMARK  152  A    between atoms: _360  and  _361
REMARK  153  A    between atoms: _360  and  _363
REMARK  154  A    between atoms: _363  and  _364
REMARK  155  A    between atoms: _364  and  _365
REMARK  156  A    between atoms: _367  and  _369
REMARK  157  A    between atoms: _369  and  _370
REMARK  158  A    between atoms: _369  and  _372
REMARK  159  A    between atoms: _375  and  _377
REMARK  160  A    between atoms: _377  and  _378
REMARK  161  A    between atoms: _380  and  _382
REMARK  162  A    between atoms: _382  and  _383
REMARK  163  A    between atoms: _385  and  _387
REMARK  164  A    between atoms: _387  and  _388
REMARK  165  A    between atoms: _387  and  _390
REMARK  166  A    between atoms: _390  and  _391
REMARK  167  A    between atoms: _394  and  _396
REMARK  168  A    between atoms: _396  and  _397
REMARK  169  A    between atoms: _399  and  _401
REMARK  170  A    between atoms: _401  and  _402
REMARK  171  A    between atoms: _404  and  _406
REMARK  172  A    between atoms: _406  and  _407
REMARK  173  A    between atoms: _406  and  _409
REMARK  174  A    between atoms: _409  and  _410
REMARK  175  A    between atoms: _416  and  _418
REMARK  176  A    between atoms: _418  and  _419
REMARK  177  A    between atoms: _418  and  _421
REMARK  178  A    between atoms: _421  and  _422
REMARK  179  A    between atoms: _425  and  _427
REMARK  180  A    between atoms: _427  and  _428
REMARK  181  A    between atoms: _427  and  _430
REMARK  182  A    between atoms: _433  and  _435
REMARK  183  A    between atoms: _435  and  _436
REMARK  184  A    between atoms: _435  and  _438
REMARK  185  A    between atoms: _438  and  _439
REMARK  186  A    between atoms: _442  and  _444
REMARK  187  A    between atoms: _444  and  _445
REMARK  188  A    between atoms: _444  and  _447
REMARK  189  A    between atoms: _447  and  _448
REMARK  190  A    between atoms: _452  and  _453
REMARK  191  A    between atoms: _458  and  _460
REMARK  192  A    between atoms: _460  and  _461
REMARK  193  A    between atoms: _460  and  _463
REMARK  194  A    between atoms: _463  and  _464
REMARK  195  A    between atoms: _467  and  _469
REMARK  196  A    between atoms: _469  and  _470
REMARK  197  A    between atoms: _469  and  _472
REMARK  198  A    between atoms: _472  and  _473
REMARK  199  A    between atoms: _478  and  _480
REMARK  200  A    between atoms: _480  and  _481
REMARK  201  A    between atoms: _480  and  _483
REMARK  202  A    between atoms: _483  and  _484
REMARK  203  A    between atoms: _487  and  _489
REMARK  204  A    between atoms: _489  and  _490
REMARK  205  A    between atoms: _489  and  _492
REMARK  206  A    between atoms: _492  and  _493
REMARK  207  A    between atoms: _496  and  _498
REMARK  208  A    between atoms: _498  and  _499
REMARK  209  A    between atoms: _501  and  _503
REMARK  210  A    between atoms: _503  and  _504
REMARK  211  A    between atoms: _503  and  _506
REMARK  212  A    between atoms: _506  and  _507
REMARK  213  A    between atoms: _507  and  _508
REMARK  214  A    between atoms: _508  and  _509
REMARK                            x       y       z     vdW  Elec       q    Type
REMARK                         _______ _______ _______ _____ _____    ______ ____
ROOT
ATOM      1  CA  LEU A   1      -3.952  17.668  40.858  0.00  0.00    +0.133 C 
ENDROOT
BRANCH   1   2
ATOM      2  N   LEU A   1      -4.558  18.982  41.020  0.00  0.00    -0.239 NA
ATOM      3  H   LEU A   1      -4.999  19.431  40.192  0.00  0.00    +0.142 HD
ENDBRANCH   1   2
BRANCH   1   4
ATOM      4  C   LEU A   1      -2.628  17.897  40.156  0.00  0.00    +0.224 C 
ATOM      5  O   LEU A   1      -2.613  18.449  39.056  0.00  0.00    -0.287 OA
ENDBRANCH   1   4
BRANCH   1   6
ATOM      6  CB  LEU A   1      -4.820  16.737  39.986  0.00  0.00    +0.025 C 
BRANCH   6   7
ATOM      7  CG  LEU A   1      -6.274  16.487  40.395  0.00  0.00    +0.002 C 
ATOM      8  CD2 LEU A   1      -6.294  15.757  41.717  0.00  0.00    +0.000 C 
ATOM      9  CD1 LEU A   1      -6.990  15.671  39.340  0.00  0.00    +0.000 C 
ENDBRANCH   6   7
ENDBRANCH   1   6
TORSDOF 4
REMARK  Name = ../refined-set-2016/1bdq/1bdq_pocket.pdb
REMARK  214 active torsions:
REMARK  status: ('A' for Active; 'I' for Inactive)
REMARK    1  A    between atoms: _1  and  _3
REMARK    2  A    between atoms: _3  and  _4
REMARK    3  A    between atoms: _3  and  _6
REMARK    4  A    between atoms: _6  and  _7
REMARK    5  A    between atoms: _7  and  _8
REMARK    6  A    between atoms: _8  and  _9
REMARK    7  A    between atoms: _18  and  _20
REMARK    8  A    between atoms: _20  and  _21
REMARK    9  A    between atoms: _20  and  _23
REMARK   10  A    between atoms: _23  and  _24
REMARK   11  A    between atoms: _27  and  _29
REMARK   12  A    between atoms: _29  and  _30
REMARK   13  A    between atoms: _29  and  _32
REMARK   14  A    between atoms: _32  and  _33
REMARK   15  A    between atoms: _36  and  _38
REMARK   16  A    between atoms: _38  and  _39
REMARK   17  A    between atoms: _38  and  _41
REMARK   18  A    between atoms: _41  and  _42
REMARK   19  A    between atoms: _45  and  _47
REMARK   20  A    between atoms: _47  and  _48
REMARK   21  A    between atoms: _50  and  _52
REMARK   22  A    between atoms: _52  and  _53
REMARK   23  A    between atoms: _56  and  _58
REMARK   24  A    between atoms: _58  and  _59
REMARK   25  A    between atoms: _58  and  _61
REMARK   26  A    between atoms: _61  and  _62
REMARK   27  A    between atoms: _65  and  _67
REMARK   28  A    between atoms: _67  and  _68
REMARK   29  A    between atoms: _67  and  _70
REMARK   30  A    between atoms: _70  and  _71
REMARK   31  A    between atoms: _74  and  _76
REMARK   32  A    between atoms: _76  and  _77
REMARK   33  A    between atoms: _76  and  _79
REMARK   34  A    between atoms: _79  and  _80
REMARK   35  A    between atoms: _82  and  _84
REMARK   36  A    between atoms: _84  and  _85
REMARK   37  A    between atoms: _84  and  _87
REMARK   38  A    between atoms: _87  and  _88
REMARK   39  A    between atoms: _91  and  _93
REMARK   40  A    between atoms: _93  and  _94
REMARK   41  A    between atoms: _93  and  _96
REMARK   42  A    between atoms: _96  and  _97
REMARK   43  A    between atoms: _97  and  _98
REMARK   44  A    between atoms: _98  and  _99
REMARK   45  A    between atoms: _99  and  _100
REMARK   46  A    between atoms: _104  and  _106
REMARK   47  A    between atoms: _106  and  _107
REMARK   48  A    between atoms: _106  and  _109
REMARK   49  A    between atoms: _112  and  _114
REMARK   50  A    between atoms: _114  and  _115
REMARK   51  A    between atoms: _117  and  _119
REMARK   52  A    between atoms: _119  and  _120
REMARK   53  A    between atoms: _122  and  _124
REMARK   54  A    between atoms: _124  and  _125
REMARK   55  A    between atoms: _124  and  _127
REMARK   56  A    between atoms: _127  and  _128
REMARK   57  A    between atoms: _131  and  _133
REMARK   58  A    between atoms: _133  and  _134
REMARK   59  A    between atoms: _136  and  _138
REMARK   60  A    between atoms: _138  and  _139
REMARK   61  A    between atoms: _141  and  _143
REMARK   62  A    between atoms: _143  and  _144
REMARK   63  A    between atoms: _143  and  _146
REMARK   64  A    between atoms: _146  and  _147
REMARK   65  A    between atoms: _150  and  _152
REMARK   66  A    between atoms: _152  and  _153
REMARK   67  A    between atoms: _152  and  _155
REMARK   68  A    between atoms: _155  and  _156
REMARK   69  A    between atoms: _159  and  _161
REMARK   70  A    between atoms: _161  and  _162
REMARK   71  A    between atoms: _161  and  _164
REMARK   72  A    between atoms: _164  and  _165
REMARK   73  A    between atoms: _169  and  _170
REMARK   74  A    between atoms: _175  and  _177
REMARK   75  A    between atoms: _177  and  _178
REMARK   76  A    between atoms: _177  and  _180
REMARK   77  A    between atoms: _180  and  _181
REMARK   78  A    between atoms: _184  and  _186
REMARK   79  A    between atoms: _186  and  _187
REMARK   80  A    between atoms: _186  and  _189
REMARK   81  A    between atoms: _189  and  _190
REMARK   82  A    between atoms: _195  and  _197
REMARK   83  A    between atoms: _197  and  _198
REMARK   84  A    between atoms: _197  and  _200
REMARK   85  A    between atoms: _200  and  _201
REMARK   86  A    between atoms: _204  and  _206
REMARK   87  A    between atoms: _206  and  _207
REMARK   88  A    between atoms: _206  and  _209
REMARK   89  A    between atoms: _209  and  _210
REMARK   90  A    between atoms: _213  and  _215
REMARK   91  A    between atoms: _215  and  _216
REMARK   92  A    between atoms: _218  and  _220
REMARK   93  A    between atoms: _220  and  _221
REMARK   94  A    between atoms: _220  and  _223
REMARK   95  A    between atoms: _223  and  _224
REMARK   96  A    between atoms: _224  and  _225
REMARK   97  A    between atoms: _225  and  _226
REMARK   98  A    between atoms: _235  and  _237
REMARK   99  A    between atoms: _237  and  _238
REMARK  100  A    between atoms: _237  and  _240
REMARK  101  A    between atoms: _240  and  _241
REMARK  102  A    between atoms: _246  and  _248
REMARK  103  A    between atoms: _248  and  _249
REMARK  104  A    between atoms: _248  and  _251
REMARK  105  A    between atoms: _251  and  _252
REMARK  106  A    between atoms: _252  and  _253
REMARK  107  A    between atoms: _253  and  _254
REMARK  108  A    between atoms: _263  and  _265
REMARK  109  A    between atoms: _265  and  _266
REMARK  110  A    between atoms: _265  and  _268
REMARK  111  A    between atoms: _268  and  _269
REMARK  112  A    between atoms: _272  and  _274
REMARK  113  A    between atoms: _274  and  _275
REMARK  114  A    between atoms: _274  and  _277
REMARK  115  A    between atoms: _277  and  _278
REMARK  116  A    between atoms: _281  and  _283
REMARK  117  A    between atoms: _283  and  _284
REMARK  118  A    between atoms: _283  and  _286
REMARK  119  A    between atoms: _286  and  _287
REMARK  120  A    between atoms: _290  and  _292
REMARK  121  A    between atoms: _292  and  _293
REMARK  122  A    between atoms: _292  and  _295
REMARK  123  A    between atoms: _295  and  _296
REMARK  124  A    between atoms: _299  and  _301
REMARK  125  A    between atoms: _301  and  _302
REMARK  126  A    between atoms: _304  and  _306
REMARK  127  A    between atoms: _306  and  _307
REMARK  128  A    between atoms: _310  and  _312
REMARK  129  A    between atoms: _312  and  _313
REMARK  130  A    between atoms: _312  and  _315
REMARK  131  A    between atoms: _315  and  _316
REMARK  132  A    between atoms: _319  and  _321
REMARK  133  A    between atoms: _321  and  _322
REMARK  134  A    between atoms: _321  and  _324
REMARK  135  A    between atoms: _324  and  _325
REMARK  136  A    between atoms: _328  and  _330
REMARK  137  A    between atoms: _330  and  _331
REMARK  138  A    between atoms: _330  and  _333
REMARK  139  A    between atoms: _333  and  _334
REMARK  140  A    between atoms: _336  and  _338
REMARK  141  A    between atoms: _338  and  _339
REMARK  142  A    between atoms: _338  and  _341
REMARK  143  A    between atoms: _341  and  _342
REMARK  144  A    between atoms: _345  and  _347
REMARK  145  A    between atoms: _347  and  _348
REMARK  146  A    between atoms: _347  and  _350
REMARK  147  A    between atoms: _350  and  _351
REMARK  148  A    between atoms: _351  and  _352
REMARK  149  A    between atoms: _352  and  _353
REMARK  150  A    between atoms: _353  and  _354
REMARK  151  A    between atoms: _358  and  _360
REMARK  152  A    between atoms: _360  and  _361
REMARK  153  A    between atoms: _360  and  _363
REMARK  154  A    between atoms: _363  and  _364
REMARK  155  A    between atoms: _364  and  _365
REMARK  156  A    between atoms: _367  and  _369
REMARK  157  A    between atoms: _369  and  _370
REMARK  158  A    between atoms: _369  and  _372
REMARK  159  A    between atoms: _375  and  _377
REMARK  160  A    between atoms: _377  and  _378
REMARK  161  A    between atoms: _380  and  _382
REMARK  162  A    between atoms: _382  and  _383
REMARK  163  A    between atoms: _385  and  _387
REMARK  164  A    between atoms: _387  and  _388
REMARK  165  A    between atoms: _387  and  _390
REMARK  166  A    between atoms: _390  and  _391
REMARK  167  A    between atoms: _394  and  _396
REMARK  168  A    between atoms: _396  and  _397
REMARK  169  A    between atoms: _399  and  _401
REMARK  170  A    between atoms: _401  and  _402
REMARK  171  A    between atoms: _404  and  _406
REMARK  172  A    between atoms: _406  and  _407
REMARK  173  A    between atoms: _406  and  _409
REMARK  174  A    between atoms: _409  and  _410
REMARK  175  A    between atoms: _416  and  _418
REMARK  176  A    between atoms: _418  and  _419
REMARK  177  A    between atoms: _418  and  _421
REMARK  178  A    between atoms: _421  and  _422
REMARK  179  A    between atoms: _425  and  _427
REMARK  180  A    between atoms: _427  and  _428
REMARK  181  A    between atoms: _427  and  _430
REMARK  182  A    between atoms: _433  and  _435
REMARK  183  A    between atoms: _435  and  _436
REMARK  184  A    between atoms: _435  and  _438
REMARK  185  A    between atoms: _438  and  _439
REMARK  186  A    between atoms: _442  and  _444
REMARK  187  A    between atoms: _444  and  _445
REMARK  188  A    between atoms: _444  and  _447
REMARK  189  A    between atoms: _447  and  _448
REMARK  190  A    between atoms: _452  and  _453
REMARK  191  A    between atoms: _458  and  _460
REMARK  192  A    between atoms: _460  and  _461
REMARK  193  A    between atoms: _460  and  _463
REMARK  194  A    between atoms: _463  and  _464
REMARK  195  A    between atoms: _467  and  _469
REMARK  196  A    between atoms: _469  and  _470
REMARK  197  A    between atoms: _469  and  _472
REMARK  198  A    between atoms: _472  and  _473
REMARK  199  A    between atoms: _478  and  _480
REMARK  200  A    between atoms: _480  and  _481
REMARK  201  A    between atoms: _480  and  _483
REMARK  202  A    between atoms: _483  and  _484
REMARK  203  A    between atoms: _487  and  _489
REMARK  204  A    between atoms: _489  and  _490
REMARK  205  A    between atoms: _489  and  _492
REMARK  206  A    between atoms: _492  and  _493
REMARK  207  A    between atoms: _496  and  _498
REMARK  208  A    between atoms: _498  and  _499
REMARK  209  A    between atoms: _501  and  _503
REMARK  210  A    between atoms: _503  and  _504
REMARK  211  A    between atoms: _503  and  _506
REMARK  212  A    between atoms: _506  and  _507
REMARK  213  A    between atoms: _507  and  _508
REMARK  214  A    between atoms: _508  and  _509
REMARK                            x       y       z     vdW  Elec       q    Type
REMARK                         _______ _______ _______ _____ _____    ______ ____
ROOT
ATOM      1  C   ILE A   5      -6.323  23.132  34.245  0.00  0.00    +0.241 C 
ATOM      2  O   ILE A   5      -5.857  22.846  35.352  0.00  0.00    -0.273 OA
ATOM      3  N   ILE A   6      -7.273  24.015  34.010  0.00  0.00    -0.297 N 
ATOM      4  H   ILE A   6      -7.517  24.200  33.016  0.00  0.00    +0.150 HD
ENDROOT
BRANCH   1   5
ATOM      5  CA  ILE A   5      -5.778  22.534  32.970  0.00  0.00    +0.149 C 
BRANCH   5   7
ATOM      6  C   ASN A   4      -3.434  22.946  32.155  0.00  0.00    +0.241 C 
ATOM      7  N   ILE A   5      -4.311  22.478  33.031  0.00  0.00    -0.297 N 
ATOM      8  H   ILE A   5      -3.910  22.011  33.869  0.00  0.00    +0.150 HD
ATOM      9  O   ASN A   4      -3.751  23.618  31.170  0.00  0.00    -0.273 OA
BRANCH   6  10
ATOM     10  CA  ASN A   4      -1.957  22.689  32.467  0.00  0.00    +0.158 C 
BRANCH  10  13
ATOM     11  C   ILE A   3      -1.447  21.115  30.639  0.00  0.00    +0.241 C 
ATOM     12  O   ILE A   3      -1.987  20.186  31.224  0.00  0.00    -0.273 OA
ATOM     13  N   ASN A   4      -1.372  22.330  31.168  0.00  0.00    -0.297 N 
ATOM     14  H   ASN A   4      -0.872  23.069  30.634  0.00  0.00    +0.150 HD
BRANCH  11  15
ATOM     15  CA  ILE A   3      -0.811  20.861  29.269  0.00  0.00    +0.149 C 
BRANCH  15  17
ATOM     16  C   PRO A   2       0.398  18.778  28.547  0.00  0.00    +0.241 C 
ATOM     17  N   ILE A   3      -0.683  19.399  29.082  0.00  0.00    -0.297 N 
ATOM     18  H   ILE A   3      -1.481  18.803  29.383  0.00  0.00    +0.150 HD
ATOM     19  O   PRO A   2       1.382  19.380  28.093  0.00  0.00    -0.273 OA
BRANCH  16  26
ATOM     20  C   THR A   1       0.311  16.463  30.834  0.00  0.00    +0.244 C 
ATOM     21  O   THR A   1       1.490  16.785  31.019  0.00  0.00    -0.273 OA
ATOM     22  N   PRO A   2      -0.197  16.516  29.573  0.00  0.00    -0.272 N 
ATOM     23  CD  PRO A   2      -1.256  15.653  29.023  0.00  0.00    +0.094 C 
ATOM     24  CG  PRO A   2      -0.754  15.388  27.629  0.00  0.00    +0.024 C 
ATOM     25  CB  PRO A   2      -0.400  16.767  27.197  0.00  0.00    +0.031 C 
ATOM     26  CA  PRO A   2       0.401  17.241  28.415  0.00  0.00    +0.152 C 
BRANCH  20  27
ATOM     27  CA  THR A   1      -0.489  15.873  32.024  0.00  0.00    +0.172 C 
BRANCH  27  28
ATOM     28  N   THR A   1       0.464  15.490  33.070  0.00  0.00    -0.236 NA
ATOM     29  H   THR A   1       0.848  16.222  33.701  0.00  0.00    +0.142 HD
ENDBRANCH  27  28
BRANCH  27  30
ATOM     30  CB  THR A   1      -1.520  16.854  32.699  0.00  0.00    +0.135 C 
ATOM     31  CG2 THR A   1      -0.820  18.058  33.293  0.00  0.00    +0.034 C 
BRANCH  30  32
ATOM     32  OG1 THR A   1      -2.518  17.235  31.738  0.00  0.00    -0.383 OA
ATOM     33  HG1 THR A   1      -2.082  17.688  30.973  0.00  0.00    +0.210 HD
ENDBRANCH  30  32
ENDBRANCH  27  30
ENDBRANCH  20  27
ENDBRANCH  16  26
ENDBRANCH  15  17
BRANCH  15  34
ATOM     34  CB  ILE A   3      -1.750  21.653  28.317  0.00  0.00    +0.027 C 
ATOM     35  CG2 ILE A   3      -0.907  22.858  27.893  0.00  0.00    +0.002 C 
BRANCH  34  36
ATOM     36  CG1 ILE A   3      -2.213  20.927  27.078  0.00  0.00    +0.002 C 
ATOM     37  CD1 ILE A   3      -3.065  21.860  26.261  0.00  0.00    +0.000 C 
ENDBRANCH  34  36
ENDBRANCH  15  34
ENDBRANCH  11  15
ENDBRANCH  10  13
BRANCH  10  38
ATOM     38  CB  ASN A   4      -1.259  23.950  33.041  0.00  0.00    +0.114 C 
BRANCH  38  39
ATOM     39  CG  ASN A   4       0.190  23.760  33.470  0.00  0.00    +0.222 C 
ATOM     40  OD1 ASN A   4       0.621  22.668  33.848  0.00  0.00    -0.275 OA
ATOM     41  ND2 ASN A   4       0.997  24.806  33.422  0.00  0.00    -0.329 N 
ATOM     42 HD21 ASN A   4       1.994  24.707  33.703  0.00  0.00    +0.145 HD
ATOM     43 HD22 ASN A   4       0.635  25.728  33.104  0.00  0.00    +0.145 HD
ENDBRANCH  38  39
ENDBRANCH  10  38
ENDBRANCH   6  10
ENDBRANCH   5   7
BRANCH   5  44
ATOM     44  CB  ILE A   5      -6.228  21.059  32.761  0.00  0.00    +0.027 C 
ATOM     45  CG2 ILE A   5      -7.723  20.898  32.933  0.00  0.00    +0.002 C 
BRANCH  44  46
ATOM     46  CG1 ILE A   5      -5.789  20.612  31.365  0.00  0.00    +0.002 C 
ATOM     47  CD1 ILE A   5      -5.731  19.118  31.188  0.00  0.00    +0.000 C 
ENDBRANCH  44  46
ENDBRANCH   5  44
ENDBRANCH   1   5
BRANCH   3  48
ATOM     48  CA  ILE A   6      -8.006  24.750  35.023  0.00  0.00    +0.149 C 
BRANCH  48  49
ATOM     49  C   ILE A   6      -9.342  24.156  34.639  0.00  0.00    +0.241 C 
ATOM     50  N   GLY A   7      -9.813  23.293  35.500  0.00  0.00    -0.295 N 
ATOM     51  H   GLY A   7      -9.269  23.082  36.361  0.00  0.00    +0.150 HD
ATOM     52  O   ILE A   6      -9.829  24.407  33.533  0.00  0.00    -0.273 OA
BRANCH  50  53
ATOM     53  CA  GLY A   7     -11.063  22.634  35.279  0.00  0.00    +0.176 C 
BRANCH  53  54
ATOM     54  C   GLY A   7     -12.171  23.466  35.859  0.00  0.00    +0.243 C 
ATOM     55  O   GLY A   7     -11.958  24.510  36.495  0.00  0.00    -0.273 OA
ATOM     56  N   ARG A   8     -13.362  22.906  35.700  0.00  0.00    -0.297 N 
ATOM     57  H   ARG A   8     -13.410  21.977  35.234  0.00  0.00    +0.150 HD
BRANCH  56  58
ATOM     58  CA  ARG A   8     -14.608  23.520  36.142  0.00  0.00    +0.149 C 
BRANCH  58  59
ATOM     59  C   ARG A   8     -14.605  23.821  37.624  0.00  0.00    +0.241 C 
ATOM     60  N   ASN A   9     -14.029  22.964  38.468  0.00  0.00    -0.298 N 
ATOM     61  H   ASN A   9     -13.600  22.094  38.093  0.00  0.00    +0.150 HD
ATOM     62  O   ARG A   8     -15.064  24.917  37.958  0.00  0.00    -0.273 OA
BRANCH  60  63
ATOM     63  CA  ASN A   9     -13.986  23.218  39.911  0.00  0.00    +0.146 C 
BRANCH  63  64
ATOM     64  C   ASN A   9     -13.323  24.556  40.295  0.00  0.00    +0.227 C 
ATOM     65  O   ASN A   9     -13.500  25.004  41.429  0.00  0.00    -0.286 OA
ENDBRANCH  63  64
BRANCH  63  66
ATOM     66  CB  ASN A   9     -13.268  22.078  40.622  0.00  0.00    +0.112 C 
BRANCH  66  67
ATOM     67  CG  ASN A   9     -11.770  22.072  40.515  0.00  0.00    +0.222 C 
ATOM     68  ND2 ASN A   9     -11.087  21.911  41.628  0.00  0.00    -0.329 N 
ATOM     69 HD21 ASN A   9     -11.586  21.809  42.535  0.00  0.00    +0.145 HD
ATOM     70 HD22 ASN A   9     -10.048  21.886  41.601  0.00  0.00    +0.145 HD
ATOM     71  OD1 ASN A   9     -11.219  22.195  39.431  0.00  0.00    -0.275 OA
ENDBRANCH  66  67
ENDBRANCH  63  66
ENDBRANCH  60  63
ENDBRANCH  58  59
BRANCH  58  72
ATOM     72  CB  ARG A   8     -15.829  22.633  35.826  0.00  0.00    +0.033 C 
BRANCH  72  73
ATOM     73  CG  ARG A   8     -16.270  22.641  34.361  0.00  0.00    +0.045 C 
BRANCH  73  74
ATOM     74  CD  ARG A   8     -17.635  22.005  34.157  0.00  0.00    +0.174 C 
BRANCH  74  75
ATOM     75  NE  ARG A   8     -17.731  20.635  34.657  0.00  0.00    -0.265 N 
ATOM     76  CZ  ARG A   8     -18.246  20.248  35.826  0.00  0.00    +0.342 C 
ATOM     77  NH2 ARG A   8     -18.749  21.111  36.703  0.00  0.00    -0.292 N 
ATOM     78 HH21 ARG A   8     -19.141  20.768  37.603  0.00  0.00    +0.255 HD
ATOM     79 HH22 ARG A   8     -18.750  22.129  36.489  0.00  0.00    +0.255 HD
ATOM     80  NH1 ARG A   8     -18.263  18.959  36.108  0.00  0.00    -0.292 N 
ATOM     81 HH11 ARG A   8     -18.658  18.630  37.012  0.00  0.00    +0.255 HD
ATOM     82 HH12 ARG A   8     -17.881  18.273  35.427  0.00  0.00    +0.255 HD
ATOM     83  HE  ARG A   8     -17.360  19.885  34.039  0.00  0.00    +0.259 HD
ENDBRANCH  74  75
ENDBRANCH  73  74
ENDBRANCH  72  73
ENDBRANCH  58  72
ENDBRANCH  56  58
ENDBRANCH  53  54
ENDBRANCH  50  53
ENDBRANCH  48  49
BRANCH  48  84
ATOM     84  CB  ILE A   6      -8.035  26.283  34.771  0.00  0.00    +0.027 C 
ATOM     85  CG2 ILE A   6      -8.959  26.943  35.787  0.00  0.00    +0.002 C 
BRANCH  84  86
ATOM     86  CG1 ILE A   6      -6.598  26.859  34.820  0.00  0.00    +0.002 C 
ATOM     87  CD1 ILE A   6      -5.801  26.664  36.099  0.00  0.00    +0.000 C 
ENDBRANCH  84  86
ENDBRANCH  48  84
ENDBRANCH   3  48
TORSDOF 33
REMARK  Name = ../refined-set-2016/1bdq/1bdq_pocket.pdb
REMARK  214 active torsions:
REMARK  status: ('A' for Active; 'I' for Inactive)
REMARK    1  A    between atoms: _1  and  _3
REMARK    2  A    between atoms: _3  and  _4
REMARK    3  A    between atoms: _3  and  _6
REMARK    4  A    between atoms: _6  and  _7
REMARK    5  A    between atoms: _7  and  _8
REMARK    6  A    between atoms: _8  and  _9
REMARK    7  A    between atoms: _18  and  _20
REMARK    8  A    between atoms: _20  and  _21
REMARK    9  A    between atoms: _20  and  _23
REMARK   10  A    between atoms: _23  and  _24
REMARK   11  A    between atoms: _27  and  _29
REMARK   12  A    between atoms: _29  and  _30
REMARK   13  A    between atoms: _29  and  _32
REMARK   14  A    between atoms: _32  and  _33
REMARK   15  A    between atoms: _36  and  _38
REMARK   16  A    between atoms: _38  and  _39
REMARK   17  A    between atoms: _38  and  _41
REMARK   18  A    between atoms: _41  and  _42
REMARK   19  A    between atoms: _45  and  _47
REMARK   20  A    between atoms: _47  and  _48
REMARK   21  A    between atoms: _50  and  _52
REMARK   22  A    between atoms: _52  and  _53
REMARK   23  A    between atoms: _56  and  _58
REMARK   24  A    between atoms: _58  and  _59
REMARK   25  A    between atoms: _58  and  _61
REMARK   26  A    between atoms: _61  and  _62
REMARK   27  A    between atoms: _65  and  _67
REMARK   28  A    between atoms: _67  and  _68
REMARK   29  A    between atoms: _67  and  _70
REMARK   30  A    between atoms: _70  and  _71
REMARK   31  A    between atoms: _74  and  _76
REMARK   32  A    between atoms: _76  and  _77
REMARK   33  A    between atoms: _76  and  _79
REMARK   34  A    between atoms: _79  and  _80
REMARK   35  A    between atoms: _82  and  _84
REMARK   36  A    between atoms: _84  and  _85
REMARK   37  A    between atoms: _84  and  _87
REMARK   38  A    between atoms: _87  and  _88
REMARK   39  A    between atoms: _91  and  _93
REMARK   40  A    between atoms: _93  and  _94
REMARK   41  A    between atoms: _93  and  _96
REMARK   42  A    between atoms: _96  and  _97
REMARK   43  A    between atoms: _97  and  _98
REMARK   44  A    between atoms: _98  and  _99
REMARK   45  A    between atoms: _99  and  _100
REMARK   46  A    between atoms: _104  and  _106
REMARK   47  A    between atoms: _106  and  _107
REMARK   48  A    between atoms: _106  and  _109
REMARK   49  A    between atoms: _112  and  _114
REMARK   50  A    between atoms: _114  and  _115
REMARK   51  A    between atoms: _117  and  _119
REMARK   52  A    between atoms: _119  and  _120
REMARK   53  A    between atoms: _122  and  _124
REMARK   54  A    between atoms: _124  and  _125
REMARK   55  A    between atoms: _124  and  _127
REMARK   56  A    between atoms: _127  and  _128
REMARK   57  A    between atoms: _131  and  _133
REMARK   58  A    between atoms: _133  and  _134
REMARK   59  A    between atoms: _136  and  _138
REMARK   60  A    between atoms: _138  and  _139
REMARK   61  A    between atoms: _141  and  _143
REMARK   62  A    between atoms: _143  and  _144
REMARK   63  A    between atoms: _143  and  _146
REMARK   64  A    between atoms: _146  and  _147
REMARK   65  A    between atoms: _150  and  _152
REMARK   66  A    between atoms: _152  and  _153
REMARK   67  A    between atoms: _152  and  _155
REMARK   68  A    between atoms: _155  and  _156
REMARK   69  A    between atoms: _159  and  _161
REMARK   70  A    between atoms: _161  and  _162
REMARK   71  A    between atoms: _161  and  _164
REMARK   72  A    between atoms: _164  and  _165
REMARK   73  A    between atoms: _169  and  _170
REMARK   74  A    between atoms: _175  and  _177
REMARK   75  A    between atoms: _177  and  _178
REMARK   76  A    between atoms: _177  and  _180
REMARK   77  A    between atoms: _180  and  _181
REMARK   78  A    between atoms: _184  and  _186
REMARK   79  A    between atoms: _186  and  _187
REMARK   80  A    between atoms: _186  and  _189
REMARK   81  A    between atoms: _189  and  _190
REMARK   82  A    between atoms: _195  and  _197
REMARK   83  A    between atoms: _197  and  _198
REMARK   84  A    between atoms: _197  and  _200
REMARK   85  A    between atoms: _200  and  _201
REMARK   86  A    between atoms: _204  and  _206
REMARK   87  A    between atoms: _206  and  _207
REMARK   88  A    between atoms: _206  and  _209
REMARK   89  A    between atoms: _209  and  _210
REMARK   90  A    between atoms: _213  and  _215
REMARK   91  A    between atoms: _215  and  _216
REMARK   92  A    between atoms: _218  and  _220
REMARK   93  A    between atoms: _220  and  _221
REMARK   94  A    between atoms: _220  and  _223
REMARK   95  A    between atoms: _223  and  _224
REMARK   96  A    between atoms: _224  and  _225
REMARK   97  A    between atoms: _225  and  _226
REMARK   98  A    between atoms: _235  and  _237
REMARK   99  A    between atoms: _237  and  _238
REMARK  100  A    between atoms: _237  and  _240
REMARK  101  A    between atoms: _240  and  _241
REMARK  102  A    between atoms: _246  and  _248
REMARK  103  A    between atoms: _248  and  _249
REMARK  104  A    between atoms: _248  and  _251
REMARK  105  A    between atoms: _251  and  _252
REMARK  106  A    between atoms: _252  and  _253
REMARK  107  A    between atoms: _253  and  _254
REMARK  108  A    between atoms: _263  and  _265
REMARK  109  A    between atoms: _265  and  _266
REMARK  110  A    between atoms: _265  and  _268
REMARK  111  A    between atoms: _268  and  _269
REMARK  112  A    between atoms: _272  and  _274
REMARK  113  A    between atoms: _274  and  _275
REMARK  114  A    between atoms: _274  and  _277
REMARK  115  A    between atoms: _277  and  _278
REMARK  116  A    between atoms: _281  and  _283
REMARK  117  A    between atoms: _283  and  _284
REMARK  118  A    between atoms: _283  and  _286
REMARK  119  A    between atoms: _286  and  _287
REMARK  120  A    between atoms: _290  and  _292
REMARK  121  A    between atoms: _292  and  _293
REMARK  122  A    between atoms: _292  and  _295
REMARK  123  A    between atoms: _295  and  _296
REMARK  124  A    between atoms: _299  and  _301
REMARK  125  A    between atoms: _301  and  _302
REMARK  126  A    between atoms: _304  and  _306
REMARK  127  A    between atoms: _306  and  _307
REMARK  128  A    between atoms: _310  and  _312
REMARK  129  A    between atoms: _312  and  _313
REMARK  130  A    between atoms: _312  and  _315
REMARK  131  A    between atoms: _315  and  _316
REMARK  132  A    between atoms: _319  and  _321
REMARK  133  A    between atoms: _321  and  _322
REMARK  134  A    between atoms: _321  and  _324
REMARK  135  A    between atoms: _324  and  _325
REMARK  136  A    between atoms: _328  and  _330
REMARK  137  A    between atoms: _330  and  _331
REMARK  138  A    between atoms: _330  and  _333
REMARK  139  A    between atoms: _333  and  _334
REMARK  140  A    between atoms: _336  and  _338
REMARK  141  A    between atoms: _338  and  _339
REMARK  142  A    between atoms: _338  and  _341
REMARK  143  A    between atoms: _341  and  _342
REMARK  144  A    between atoms: _345  and  _347
REMARK  145  A    between atoms: _347  and  _348
REMARK  146  A    between atoms: _347  and  _350
REMARK  147  A    between atoms: _350  and  _351
REMARK  148  A    between atoms: _351  and  _352
REMARK  149  A    between atoms: _352  and  _353
REMARK  150  A    between atoms: _353  and  _354
REMARK  151  A    between atoms: _358  and  _360
REMARK  152  A    between atoms: _360  and  _361
REMARK  153  A    between atoms: _360  and  _363
REMARK  154  A    between atoms: _363  and  _364
REMARK  155  A    between atoms: _364  and  _365
REMARK  156  A    between atoms: _367  and  _369
REMARK  157  A    between atoms: _369  and  _370
REMARK  158  A    between atoms: _369  and  _372
REMARK  159  A    between atoms: _375  and  _377
REMARK  160  A    between atoms: _377  and  _378
REMARK  161  A    between atoms: _380  and  _382
REMARK  162  A    between atoms: _382  and  _383
REMARK  163  A    between atoms: _385  and  _387
REMARK  164  A    between atoms: _387  and  _388
REMARK  165  A    between atoms: _387  and  _390
REMARK  166  A    between atoms: _390  and  _391
REMARK  167  A    between atoms: _394  and  _396
REMARK  168  A    between atoms: _396  and  _397
REMARK  169  A    between atoms: _399  and  _401
REMARK  170  A    between atoms: _401  and  _402
REMARK  171  A    between atoms: _404  and  _406
REMARK  172  A    between atoms: _406  and  _407
REMARK  173  A    between atoms: _406  and  _409
REMARK  174  A    between atoms: _409  and  _410
REMARK  175  A    between atoms: _416  and  _418
REMARK  176  A    between atoms: _418  and  _419
REMARK  177  A    between atoms: _418  and  _421
REMARK  178  A    between atoms: _421  and  _422
REMARK  179  A    between atoms: _425  and  _427
REMARK  180  A    between atoms: _427  and  _428
REMARK  181  A    between atoms: _427  and  _430
REMARK  182  A    between atoms: _433  and  _435
REMARK  183  A    between atoms: _435  and  _436
REMARK  184  A    between atoms: _435  and  _438
REMARK  185  A    between atoms: _438  and  _439
REMARK  186  A    between atoms: _442  and  _444
REMARK  187  A    between atoms: _444  and  _445
REMARK  188  A    between atoms: _444  and  _447
REMARK  189  A    between atoms: _447  and  _448
REMARK  190  A    between atoms: _452  and  _453
REMARK  191  A    between atoms: _458  and  _460
REMARK  192  A    between atoms: _460  and  _461
REMARK  193  A    between atoms: _460  and  _463
REMARK  194  A    between atoms: _463  and  _464
REMARK  195  A    between atoms: _467  and  _469
REMARK  196  A    between atoms: _469  and  _470
REMARK  197  A    between atoms: _469  and  _472
REMARK  198  A    between atoms: _472  and  _473
REMARK  199  A    between atoms: _478  and  _480
REMARK  200  A    between atoms: _480  and  _481
REMARK  201  A    between atoms: _480  and  _483
REMARK  202  A    between atoms: _483  and  _484
REMARK  203  A    between atoms: _487  and  _489
REMARK  204  A    between atoms: _489  and  _490
REMARK  205  A    between atoms: _489  and  _492
REMARK  206  A    between atoms: _492  and  _493
REMARK  207  A    between atoms: _496  and  _498
REMARK  208  A    between atoms: _498  and  _499
REMARK  209  A    between atoms: _501  and  _503
REMARK  210  A    between atoms: _503  and  _504
REMARK  211  A    between atoms: _503  and  _506
REMARK  212  A    between atoms: _506  and  _507
REMARK  213  A    between atoms: _507  and  _508
REMARK  214  A    between atoms: _508  and  _509
REMARK                            x       y       z     vdW  Elec       q    Type
REMARK                         _______ _______ _______ _____ _____    ______ ____
ROOT
ATOM      1  NE  ARG A   1     -18.490  15.515  33.388  0.00  0.00    -0.265 N 
ATOM      2  HE  ARG A   1     -18.692  15.321  34.390  0.00  0.00    +0.259 HD
ATOM      3  CZ  ARG A   1     -17.876  14.561  32.674  0.00  0.00    +0.342 C 
ATOM      4  NH2 ARG A   1     -17.593  13.401  33.249  0.00  0.00    -0.292 N 
ATOM      5 HH21 ARG A   1     -17.847  13.238  34.244  0.00  0.00    +0.255 HD
ATOM      6 HH22 ARG A   1     -17.117  12.653  32.705  0.00  0.00    +0.255 HD
ATOM      7  NH1 ARG A   1     -17.561  14.710  31.381  0.00  0.00    -0.292 N 
ATOM      8 HH11 ARG A   1     -17.793  15.596  30.888  0.00  0.00    +0.255 HD
ATOM      9 HH12 ARG A   1     -17.084  13.940  30.870  0.00  0.00    +0.255 HD
ENDROOT
BRANCH   1  10
ATOM     10  CD  ARG A   1     -18.893  16.811  32.845  0.00  0.00    +0.174 C 
BRANCH  10  11
ATOM     11  CG  ARG A   1     -20.198  17.318  33.402  0.00  0.00    +0.045 C 
BRANCH  11  12
ATOM     12  CB  ARG A   1     -20.848  18.269  32.406  0.00  0.00    +0.029 C 
BRANCH  12  13
ATOM     13  CA  ARG A   1     -20.967  19.756  32.791  0.00  0.00    +0.133 C 
BRANCH  13  14
ATOM     14  N   ARG A   1     -21.640  19.921  34.097  0.00  0.00    -0.239 NA
ATOM     15  H   ARG A   1     -21.846  19.067  34.653  0.00  0.00    +0.142 HD
ENDBRANCH  13  14
BRANCH  13  16
ATOM     16  C   ARG A   1     -21.746  20.466  31.672  0.00  0.00    +0.224 C 
ATOM     17  O   ARG A   1     -22.973  20.328  31.641  0.00  0.00    -0.287 OA
ENDBRANCH  13  16
ENDBRANCH  12  13
ENDBRANCH  11  12
ENDBRANCH  10  11
ENDBRANCH   1  10
TORSDOF 6
REMARK  Name = ../refined-set-2016/1bdq/1bdq_pocket.pdb
REMARK  214 active torsions:
REMARK  status: ('A' for Active; 'I' for Inactive)
REMARK    1  A    between atoms: _1  and  _3
REMARK    2  A    between atoms: _3  and  _4
REMARK    3  A    between atoms: _3  and  _6
REMARK    4  A    between atoms: _6  and  _7
REMARK    5  A    between atoms: _7  and  _8
REMARK    6  A    between atoms: _8  and  _9
REMARK    7  A    between atoms: _18  and  _20
REMARK    8  A    between atoms: _20  and  _21
REMARK    9  A    between atoms: _20  and  _23
REMARK   10  A    between atoms: _23  and  _24
REMARK   11  A    between atoms: _27  and  _29
REMARK   12  A    between atoms: _29  and  _30
REMARK   13  A    between atoms: _29  and  _32
REMARK   14  A    between atoms: _32  and  _33
REMARK   15  A    between atoms: _36  and  _38
REMARK   16  A    between atoms: _38  and  _39
REMARK   17  A    between atoms: _38  and  _41
REMARK   18  A    between atoms: _41  and  _42
REMARK   19  A    between atoms: _45  and  _47
REMARK   20  A    between atoms: _47  and  _48
REMARK   21  A    between atoms: _50  and  _52
REMARK   22  A    between atoms: _52  and  _53
REMARK   23  A    between atoms: _56  and  _58
REMARK   24  A    between atoms: _58  and  _59
REMARK   25  A    between atoms: _58  and  _61
REMARK   26  A    between atoms: _61  and  _62
REMARK   27  A    between atoms: _65  and  _67
REMARK   28  A    between atoms: _67  and  _68
REMARK   29  A    between atoms: _67  and  _70
REMARK   30  A    between atoms: _70  and  _71
REMARK   31  A    between atoms: _74  and  _76
REMARK   32  A    between atoms: _76  and  _77
REMARK   33  A    between atoms: _76  and  _79
REMARK   34  A    between atoms: _79  and  _80
REMARK   35  A    between atoms: _82  and  _84
REMARK   36  A    between atoms: _84  and  _85
REMARK   37  A    between atoms: _84  and  _87
REMARK   38  A    between atoms: _87  and  _88
REMARK   39  A    between atoms: _91  and  _93
REMARK   40  A    between atoms: _93  and  _94
REMARK   41  A    between atoms: _93  and  _96
REMARK   42  A    between atoms: _96  and  _97
REMARK   43  A    between atoms: _97  and  _98
REMARK   44  A    between atoms: _98  and  _99
REMARK   45  A    between atoms: _99  and  _100
REMARK   46  A    between atoms: _104  and  _106
REMARK   47  A    between atoms: _106  and  _107
REMARK   48  A    between atoms: _106  and  _109
REMARK   49  A    between atoms: _112  and  _114
REMARK   50  A    between atoms: _114  and  _115
REMARK   51  A    between atoms: _117  and  _119
REMARK   52  A    between atoms: _119  and  _120
REMARK   53  A    between atoms: _122  and  _124
REMARK   54  A    between atoms: _124  and  _125
REMARK   55  A    between atoms: _124  and  _127
REMARK   56  A    between atoms: _127  and  _128
REMARK   57  A    between atoms: _131  and  _133
REMARK   58  A    between atoms: _133  and  _134
REMARK   59  A    between atoms: _136  and  _138
REMARK   60  A    between atoms: _138  and  _139
REMARK   61  A    between atoms: _141  and  _143
REMARK   62  A    between atoms: _143  and  _144
REMARK   63  A    between atoms: _143  and  _146
REMARK   64  A    between atoms: _146  and  _147
REMARK   65  A    between atoms: _150  and  _152
REMARK   66  A    between atoms: _152  and  _153
REMARK   67  A    between atoms: _152  and  _155
REMARK   68  A    between atoms: _155  and  _156
REMARK   69  A    between atoms: _159  and  _161
REMARK   70  A    between atoms: _161  and  _162
REMARK   71  A    between atoms: _161  and  _164
REMARK   72  A    between atoms: _164  and  _165
REMARK   73  A    between atoms: _169  and  _170
REMARK   74  A    between atoms: _175  and  _177
REMARK   75  A    between atoms: _177  and  _178
REMARK   76  A    between atoms: _177  and  _180
REMARK   77  A    between atoms: _180  and  _181
REMARK   78  A    between atoms: _184  and  _186
REMARK   79  A    between atoms: _186  and  _187
REMARK   80  A    between atoms: _186  and  _189
REMARK   81  A    between atoms: _189  and  _190
REMARK   82  A    between atoms: _195  and  _197
REMARK   83  A    between atoms: _197  and  _198
REMARK   84  A    between atoms: _197  and  _200
REMARK   85  A    between atoms: _200  and  _201
REMARK   86  A    between atoms: _204  and  _206
REMARK   87  A    between atoms: _206  and  _207
REMARK   88  A    between atoms: _206  and  _209
REMARK   89  A    between atoms: _209  and  _210
REMARK   90  A    between atoms: _213  and  _215
REMARK   91  A    between atoms: _215  and  _216
REMARK   92  A    between atoms: _218  and  _220
REMARK   93  A    between atoms: _220  and  _221
REMARK   94  A    between atoms: _220  and  _223
REMARK   95  A    between atoms: _223  and  _224
REMARK   96  A    between atoms: _224  and  _225
REMARK   97  A    between atoms: _225  and  _226
REMARK   98  A    between atoms: _235  and  _237
REMARK   99  A    between atoms: _237  and  _238
REMARK  100  A    between atoms: _237  and  _240
REMARK  101  A    between atoms: _240  and  _241
REMARK  102  A    between atoms: _246  and  _248
REMARK  103  A    between atoms: _248  and  _249
REMARK  104  A    between atoms: _248  and  _251
REMARK  105  A    between atoms: _251  and  _252
REMARK  106  A    between atoms: _252  and  _253
REMARK  107  A    between atoms: _253  and  _254
REMARK  108  A    between atoms: _263  and  _265
REMARK  109  A    between atoms: _265  and  _266
REMARK  110  A    between atoms: _265  and  _268
REMARK  111  A    between atoms: _268  and  _269
REMARK  112  A    between atoms: _272  and  _274
REMARK  113  A    between atoms: _274  and  _275
REMARK  114  A    between atoms: _274  and  _277
REMARK  115  A    between atoms: _277  and  _278
REMARK  116  A    between atoms: _281  and  _283
REMARK  117  A    between atoms: _283  and  _284
REMARK  118  A    between atoms: _283  and  _286
REMARK  119  A    between atoms: _286  and  _287
REMARK  120  A    between atoms: _290  and  _292
REMARK  121  A    between atoms: _292  and  _293
REMARK  122  A    between atoms: _292  and  _295
REMARK  123  A    between atoms: _295  and  _296
REMARK  124  A    between atoms: _299  and  _301
REMARK  125  A    between atoms: _301  and  _302
REMARK  126  A    between atoms: _304  and  _306
REMARK  127  A    between atoms: _306  and  _307
REMARK  128  A    between atoms: _310  and  _312
REMARK  129  A    between atoms: _312  and  _313
REMARK  130  A    between atoms: _312  and  _315
REMARK  131  A    between atoms: _315  and  _316
REMARK  132  A    between atoms: _319  and  _321
REMARK  133  A    between atoms: _321  and  _322
REMARK  134  A    between atoms: _321  and  _324
REMARK  135  A    between atoms: _324  and  _325
REMARK  136  A    between atoms: _328  and  _330
REMARK  137  A    between atoms: _330  and  _331
REMARK  138  A    between atoms: _330  and  _333
REMARK  139  A    between atoms: _333  and  _334
REMARK  140  A    between atoms: _336  and  _338
REMARK  141  A    between atoms: _338  and  _339
REMARK  142  A    between atoms: _338  and  _341
REMARK  143  A    between atoms: _341  and  _342
REMARK  144  A    between atoms: _345  and  _347
REMARK  145  A    between atoms: _347  and  _348
REMARK  146  A    between atoms: _347  and  _350
REMARK  147  A    between atoms: _350  and  _351
REMARK  148  A    between atoms: _351  and  _352
REMARK  149  A    between atoms: _352  and  _353
REMARK  150  A    between atoms: _353  and  _354
REMARK  151  A    between atoms: _358  and  _360
REMARK  152  A    between atoms: _360  and  _361
REMARK  153  A    between atoms: _360  and  _363
REMARK  154  A    between atoms: _363  and  _364
REMARK  155  A    between atoms: _364  and  _365
REMARK  156  A    between atoms: _367  and  _369
REMARK  157  A    between atoms: _369  and  _370
REMARK  158  A    between atoms: _369  and  _372
REMARK  159  A    between atoms: _375  and  _377
REMARK  160  A    between atoms: _377  and  _378
REMARK  161  A    between atoms: _380  and  _382
REMARK  162  A    between atoms: _382  and  _383
REMARK  163  A    between atoms: _385  and  _387
REMARK  164  A    between atoms: _387  and  _388
REMARK  165  A    between atoms: _387  and  _390
REMARK  166  A    between atoms: _390  and  _391
REMARK  167  A    between atoms: _394  and  _396
REMARK  168  A    between atoms: _396  and  _397
REMARK  169  A    between atoms: _399  and  _401
REMARK  170  A    between atoms: _401  and  _402
REMARK  171  A    between atoms: _404  and  _406
REMARK  172  A    between atoms: _406  and  _407
REMARK  173  A    between atoms: _406  and  _409
REMARK  174  A    between atoms: _409  and  _410
REMARK  175  A    between atoms: _416  and  _418
REMARK  176  A    between atoms: _418  and  _419
REMARK  177  A    between atoms: _418  and  _421
REMARK  178  A    between atoms: _421  and  _422
REMARK  179  A    between atoms: _425  and  _427
REMARK  180  A    between atoms: _427  and  _428
REMARK  181  A    between atoms: _427  and  _430
REMARK  182  A    between atoms: _433  and  _435
REMARK  183  A    between atoms: _435  and  _436
REMARK  184  A    between atoms: _435  and  _438
REMARK  185  A    between atoms: _438  and  _439
REMARK  186  A    between atoms: _442  and  _444
REMARK  187  A    between atoms: _444  and  _445
REMARK  188  A    between atoms: _444  and  _447
REMARK  189  A    between atoms: _447  and  _448
REMARK  190  A    between atoms: _452  and  _453
REMARK  191  A    between atoms: _458  and  _460
REMARK  192  A    between atoms: _460  and  _461
REMARK  193  A    between atoms: _460  and  _463
REMARK  194  A    between atoms: _463  and  _464
REMARK  195  A    between atoms: _467  and  _469
REMARK  196  A    between atoms: _469  and  _470
REMARK  197  A    between atoms: _469  and  _472
REMARK  198  A    between atoms: _472  and  _473
REMARK  199  A    between atoms: _478  and  _480
REMARK  200  A    between atoms: _480  and  _481
REMARK  201  A    between atoms: _480  and  _483
REMARK  202  A    between atoms: _483  and  _484
REMARK  203  A    between atoms: _487  and  _489
REMARK  204  A    between atoms: _489  and  _490
REMARK  205  A    between atoms: _489  and  _492
REMARK  206  A    between atoms: _492  and  _493
REMARK  207  A    between atoms: _496  and  _498
REMARK  208  A    between atoms: _498  and  _499
REMARK  209  A    between atoms: _501  and  _503
REMARK  210  A    between atoms: _503  and  _504
REMARK  211  A    between atoms: _503  and  _506
REMARK  212  A    between atoms: _506  and  _507
REMARK  213  A    between atoms: _507  and  _508
REMARK  214  A    between atoms: _508  and  _509
REMARK                            x       y       z     vdW  Elec       q    Type
REMARK                         _______ _______ _______ _____ _____    ______ ____
ROOT
ATOM      1  C   GLY A   5      -9.570  21.253  24.731  0.00  0.00    +0.243 C 
ATOM      2  O   GLY A   5      -8.684  20.392  24.830  0.00  0.00    -0.273 OA
ATOM      3  N   ALA A   6     -10.430  21.229  23.729  0.00  0.00    -0.297 N 
ATOM      4  H   ALA A   6     -11.189  21.939  23.701  0.00  0.00    +0.150 HD
ENDROOT
BRANCH   3   5
ATOM      5  CA  ALA A   6     -10.350  20.250  22.673  0.00  0.00    +0.149 C 
ATOM      6  CB  ALA A   6     -11.610  19.424  22.597  0.00  0.00    +0.031 C 
BRANCH   5   7
ATOM      7  C   ALA A   6     -10.210  21.037  21.401  0.00  0.00    +0.241 C 
ATOM      8  O   ALA A   6     -10.943  21.999  21.213  0.00  0.00    -0.273 OA
ATOM      9  N   ASP A   7      -9.270  20.666  20.548  0.00  0.00    -0.297 N 
ATOM     10  H   ASP A   7      -8.656  19.858  20.778  0.00  0.00    +0.150 HD
BRANCH   9  11
ATOM     11  CA  ASP A   7      -9.086  21.374  19.295  0.00  0.00    +0.160 C 
BRANCH  11  12
ATOM     12  C   ASP A   7      -9.938  20.673  18.253  0.00  0.00    +0.241 C 
ATOM     13  N   ASP A   8     -10.238  19.396  18.511  0.00  0.00    -0.297 N 
ATOM     14  H   ASP A   8      -9.888  18.982  19.399  0.00  0.00    +0.150 HD
ATOM     15  O   ASP A   7     -10.352  21.315  17.293  0.00  0.00    -0.273 OA
BRANCH  13  16
ATOM     16  CA  ASP A   8     -11.028  18.546  17.621  0.00  0.00    +0.160 C 
BRANCH  16  17
ATOM     17  C   ASP A   8     -12.263  17.975  18.317  0.00  0.00    +0.241 C 
ATOM     18  O   ASP A   8     -12.298  17.891  19.548  0.00  0.00    -0.273 OA
ATOM     19  N   SER A   9     -13.226  17.552  17.519  0.00  0.00    -0.295 N 
ATOM     20  H   SER A   9     -13.090  17.641  16.492  0.00  0.00    +0.150 HD
BRANCH  19  21
ATOM     21  CA  SER A   9     -14.470  16.966  18.003  0.00  0.00    +0.178 C 
BRANCH  21  22
ATOM     22  C   SER A   9     -14.293  15.469  17.751  0.00  0.00    +0.243 C 
ATOM     23  N   ILE A  10     -14.714  14.618  18.696  0.00  0.00    -0.298 N 
ATOM     24  H   ILE A  10     -15.147  15.032  19.546  0.00  0.00    +0.150 HD
ATOM     25  O   SER A   9     -13.763  15.113  16.690  0.00  0.00    -0.273 OA
BRANCH  23  26
ATOM     26  CA  ILE A  10     -14.619  13.152  18.639  0.00  0.00    +0.137 C 
BRANCH  26  27
ATOM     27  C   ILE A  10     -15.990  12.617  19.058  0.00  0.00    +0.227 C 
ATOM     28  O   ILE A  10     -16.572  13.088  20.048  0.00  0.00    -0.286 OA
ENDBRANCH  26  27
BRANCH  26  29
ATOM     29  CB  ILE A  10     -13.586  12.515  19.645  0.00  0.00    +0.026 C 
ATOM     30  CG2 ILE A  10     -13.134  11.201  19.007  0.00  0.00    +0.002 C 
BRANCH  29  31
ATOM     31  CG1 ILE A  10     -12.338  13.380  19.904  0.00  0.00    +0.002 C 
ATOM     32  CD1 ILE A  10     -11.436  12.869  21.009  0.00  0.00    +0.000 C 
ENDBRANCH  29  31
ENDBRANCH  26  29
ENDBRANCH  23  26
ENDBRANCH  21  22
BRANCH  21  33
ATOM     33  CB  SER A   9     -15.670  17.533  17.210  0.00  0.00    +0.166 C 
BRANCH  33  34
ATOM     34  OG  SER A   9     -15.893  18.929  17.422  0.00  0.00    -0.380 OA
ATOM     35  H   SER A   9     -15.090  19.436  17.144  0.00  0.00    +0.211 HD
ENDBRANCH  33  34
ENDBRANCH  21  33
ENDBRANCH  19  21
ENDBRANCH  16  17
BRANCH  16  36
ATOM     36  CB  ASP A   8     -10.161  17.366  17.115  0.00  0.00    +0.143 C 
BRANCH  36  37
ATOM     37  CG  ASP A   8      -8.857  17.742  16.426  0.00  0.00    +0.367 C 
ATOM     38  OD2 ASP A   8      -7.785  17.181  16.767  0.00  0.00    -0.246 OA
ATOM     39  OD1 ASP A   8      -8.918  18.615  15.534  0.00  0.00    -0.246 OA
ENDBRANCH  36  37
ENDBRANCH  16  36
ENDBRANCH  13  16
ENDBRANCH  11  12
BRANCH  11  40
ATOM     40  CB  ASP A   7      -7.676  21.315  18.747  0.00  0.00    +0.143 C 
BRANCH  40  41
ATOM     41  CG  ASP A   7      -6.516  21.698  19.637  0.00  0.00    +0.367 C 
ATOM     42  OD2 ASP A   7      -6.700  22.396  20.657  0.00  0.00    -0.246 OA
ATOM     43  OD1 ASP A   7      -5.390  21.284  19.289  0.00  0.00    -0.246 OA
ENDBRANCH  40  41
ENDBRANCH  11  40
ENDBRANCH   9  11
ENDBRANCH   5   7
ENDBRANCH   3   5
BRANCH   1  44
ATOM     44  CA  GLY A   5      -9.729  22.323  25.788  0.00  0.00    +0.176 C 
BRANCH  44  46
ATOM     45  C   THR A   4     -11.408  23.944  24.990  0.00  0.00    +0.243 C 
ATOM     46  N   GLY A   5     -11.031  22.966  25.827  0.00  0.00    -0.295 N 
ATOM     47  H   GLY A   5     -11.711  22.649  26.547  0.00  0.00    +0.150 HD
ATOM     48  O   THR A   4     -10.713  24.332  24.053  0.00  0.00    -0.273 OA
BRANCH  45  49
ATOM     49  CA  THR A   4     -12.821  24.509  25.160  0.00  0.00    +0.176 C 
BRANCH  49  51
ATOM     50  C   ASP A   3     -14.025  22.421  24.754  0.00  0.00    +0.241 C 
ATOM     51  N   THR A   4     -13.730  23.436  25.562  0.00  0.00    -0.295 N 
ATOM     52  H   THR A   4     -14.159  23.467  26.509  0.00  0.00    +0.150 HD
ATOM     53  O   ASP A   3     -13.529  22.272  23.634  0.00  0.00    -0.273 OA
BRANCH  50  54
ATOM     54  CA  ASP A   3     -14.971  21.367  25.317  0.00  0.00    +0.160 C 
BRANCH  54  57
ATOM     55  C   LEU A   2     -17.348  21.845  25.578  0.00  0.00    +0.241 C 
ATOM     56  O   LEU A   2     -17.213  22.339  26.700  0.00  0.00    -0.273 OA
ATOM     57  N   ASP A   3     -16.346  21.376  24.867  0.00  0.00    -0.297 N 
ATOM     58  H   ASP A   3     -16.555  20.988  23.925  0.00  0.00    +0.150 HD
BRANCH  55  59
ATOM     59  CA  LEU A   2     -18.709  21.717  24.910  0.00  0.00    +0.149 C 
BRANCH  59  61
ATOM     60  C   LEU A   1     -19.033  19.289  25.242  0.00  0.00    +0.238 C 
ATOM     61  N   LEU A   2     -19.326  20.550  25.557  0.00  0.00    -0.297 N 
ATOM     62  H   LEU A   2     -20.031  20.718  26.303  0.00  0.00    +0.150 HD
ATOM     63  O   LEU A   1     -18.256  19.048  24.316  0.00  0.00    -0.274 OA
BRANCH  60  64
ATOM     64  CA  LEU A   1     -19.694  18.106  25.961  0.00  0.00    +0.145 C 
BRANCH  64  65
ATOM     65  N   LEU A   1     -20.293  17.161  25.036  0.00  0.00    -0.238 NA
ATOM     66  H   LEU A   1     -19.686  16.383  24.709  0.00  0.00    +0.142 HD
ENDBRANCH  64  65
BRANCH  64  67
ATOM     67  CB  LEU A   1     -18.769  17.161  26.781  0.00  0.00    +0.026 C 
BRANCH  67  68
ATOM     68  CG  LEU A   1     -17.798  17.453  27.939  0.00  0.00    +0.002 C 
ATOM     69  CD2 LEU A   1     -18.320  18.562  28.848  0.00  0.00    +0.000 C 
ATOM     70  CD1 LEU A   1     -16.453  17.721  27.323  0.00  0.00    +0.000 C 
ENDBRANCH  67  68
ENDBRANCH  64  67
ENDBRANCH  60  64
ENDBRANCH  59  61
BRANCH  59  71
ATOM     71  CB  LEU A   2     -19.540  22.974  25.158  0.00  0.00    +0.029 C 
BRANCH  71  72
ATOM     72  CG  LEU A   2     -20.711  23.366  24.247  0.00  0.00    +0.002 C 
ATOM     73  CD2 LEU A   2     -21.883  23.636  25.145  0.00  0.00    +0.000 C 
ATOM     74  CD1 LEU A   2     -21.032  22.294  23.218  0.00  0.00    +0.000 C 
ENDBRANCH  71  72
ENDBRANCH  59  71
ENDBRANCH  55  59
ENDBRANCH  54  57
BRANCH  54  75
ATOM     75  CB  ASP A   3     -14.483  19.976  25.020  0.00  0.00    +0.143 C 
BRANCH  75  76
ATOM     76  CG  ASP A   3     -13.298  19.467  25.793  0.00  0.00    +0.367 C 
ATOM     77  OD2 ASP A   3     -12.356  20.231  26.099  0.00  0.00    -0.246 OA
ATOM     78  OD1 ASP A   3     -13.316  18.253  26.069  0.00  0.00    -0.246 OA
ENDBRANCH  75  76
ENDBRANCH  54  75
ENDBRANCH  50  54
ENDBRANCH  49  51
BRANCH  49  79
ATOM     79  CB  THR A   4     -12.800  25.646  26.204  0.00  0.00    +0.137 C 
ATOM     80  CG2 THR A   4     -14.017  26.513  26.018  0.00  0.00    +0.034 C 
BRANCH  79  81
ATOM     81  OG1 THR A   4     -12.933  25.157  27.540  0.00  0.00    -0.382 OA
ATOM     82  HG1 THR A   4     -13.792  24.674  27.629  0.00  0.00    +0.210 HD
ENDBRANCH  79  81
ENDBRANCH  49  79
ENDBRANCH  45  49
ENDBRANCH  44  46
ENDBRANCH   1  44
TORSDOF 36
REMARK  Name = ../refined-set-2016/1bdq/1bdq_pocket.pdb
REMARK  214 active torsions:
REMARK  status: ('A' for Active; 'I' for Inactive)
REMARK    1  A    between atoms: _1  and  _3
REMARK    2  A    between atoms: _3  and  _4
REMARK    3  A    between atoms: _3  and  _6
REMARK    4  A    between atoms: _6  and  _7
REMARK    5  A    between atoms: _7  and  _8
REMARK    6  A    between atoms: _8  and  _9
REMARK    7  A    between atoms: _18  and  _20
REMARK    8  A    between atoms: _20  and  _21
REMARK    9  A    between atoms: _20  and  _23
REMARK   10  A    between atoms: _23  and  _24
REMARK   11  A    between atoms: _27  and  _29
REMARK   12  A    between atoms: _29  and  _30
REMARK   13  A    between atoms: _29  and  _32
REMARK   14  A    between atoms: _32  and  _33
REMARK   15  A    between atoms: _36  and  _38
REMARK   16  A    between atoms: _38  and  _39
REMARK   17  A    between atoms: _38  and  _41
REMARK   18  A    between atoms: _41  and  _42
REMARK   19  A    between atoms: _45  and  _47
REMARK   20  A    between atoms: _47  and  _48
REMARK   21  A    between atoms: _50  and  _52
REMARK   22  A    between atoms: _52  and  _53
REMARK   23  A    between atoms: _56  and  _58
REMARK   24  A    between atoms: _58  and  _59
REMARK   25  A    between atoms: _58  and  _61
REMARK   26  A    between atoms: _61  and  _62
REMARK   27  A    between atoms: _65  and  _67
REMARK   28  A    between atoms: _67  and  _68
REMARK   29  A    between atoms: _67  and  _70
REMARK   30  A    between atoms: _70  and  _71
REMARK   31  A    between atoms: _74  and  _76
REMARK   32  A    between atoms: _76  and  _77
REMARK   33  A    between atoms: _76  and  _79
REMARK   34  A    between atoms: _79  and  _80
REMARK   35  A    between atoms: _82  and  _84
REMARK   36  A    between atoms: _84  and  _85
REMARK   37  A    between atoms: _84  and  _87
REMARK   38  A    between atoms: _87  and  _88
REMARK   39  A    between atoms: _91  and  _93
REMARK   40  A    between atoms: _93  and  _94
REMARK   41  A    between atoms: _93  and  _96
REMARK   42  A    between atoms: _96  and  _97
REMARK   43  A    between atoms: _97  and  _98
REMARK   44  A    between atoms: _98  and  _99
REMARK   45  A    between atoms: _99  and  _100
REMARK   46  A    between atoms: _104  and  _106
REMARK   47  A    between atoms: _106  and  _107
REMARK   48  A    between atoms: _106  and  _109
REMARK   49  A    between atoms: _112  and  _114
REMARK   50  A    between atoms: _114  and  _115
REMARK   51  A    between atoms: _117  and  _119
REMARK   52  A    between atoms: _119  and  _120
REMARK   53  A    between atoms: _122  and  _124
REMARK   54  A    between atoms: _124  and  _125
REMARK   55  A    between atoms: _124  and  _127
REMARK   56  A    between atoms: _127  and  _128
REMARK   57  A    between atoms: _131  and  _133
REMARK   58  A    between atoms: _133  and  _134
REMARK   59  A    between atoms: _136  and  _138
REMARK   60  A    between atoms: _138  and  _139
REMARK   61  A    between atoms: _141  and  _143
REMARK   62  A    between atoms: _143  and  _144
REMARK   63  A    between atoms: _143  and  _146
REMARK   64  A    between atoms: _146  and  _147
REMARK   65  A    between atoms: _150  and  _152
REMARK   66  A    between atoms: _152  and  _153
REMARK   67  A    between atoms: _152  and  _155
REMARK   68  A    between atoms: _155  and  _156
REMARK   69  A    between atoms: _159  and  _161
REMARK   70  A    between atoms: _161  and  _162
REMARK   71  A    between atoms: _161  and  _164
REMARK   72  A    between atoms: _164  and  _165
REMARK   73  A    between atoms: _169  and  _170
REMARK   74  A    between atoms: _175  and  _177
REMARK   75  A    between atoms: _177  and  _178
REMARK   76  A    between atoms: _177  and  _180
REMARK   77  A    between atoms: _180  and  _181
REMARK   78  A    between atoms: _184  and  _186
REMARK   79  A    between atoms: _186  and  _187
REMARK   80  A    between atoms: _186  and  _189
REMARK   81  A    between atoms: _189  and  _190
REMARK   82  A    between atoms: _195  and  _197
REMARK   83  A    between atoms: _197  and  _198
REMARK   84  A    between atoms: _197  and  _200
REMARK   85  A    between atoms: _200  and  _201
REMARK   86  A    between atoms: _204  and  _206
REMARK   87  A    between atoms: _206  and  _207
REMARK   88  A    between atoms: _206  and  _209
REMARK   89  A    between atoms: _209  and  _210
REMARK   90  A    between atoms: _213  and  _215
REMARK   91  A    between atoms: _215  and  _216
REMARK   92  A    between atoms: _218  and  _220
REMARK   93  A    between atoms: _220  and  _221
REMARK   94  A    between atoms: _220  and  _223
REMARK   95  A    between atoms: _223  and  _224
REMARK   96  A    between atoms: _224  and  _225
REMARK   97  A    between atoms: _225  and  _226
REMARK   98  A    between atoms: _235  and  _237
REMARK   99  A    between atoms: _237  and  _238
REMARK  100  A    between atoms: _237  and  _240
REMARK  101  A    between atoms: _240  and  _241
REMARK  102  A    between atoms: _246  and  _248
REMARK  103  A    between atoms: _248  and  _249
REMARK  104  A    between atoms: _248  and  _251
REMARK  105  A    between atoms: _251  and  _252
REMARK  106  A    between atoms: _252  and  _253
REMARK  107  A    between atoms: _253  and  _254
REMARK  108  A    between atoms: _263  and  _265
REMARK  109  A    between atoms: _265  and  _266
REMARK  110  A    between atoms: _265  and  _268
REMARK  111  A    between atoms: _268  and  _269
REMARK  112  A    between atoms: _272  and  _274
REMARK  113  A    between atoms: _274  and  _275
REMARK  114  A    between atoms: _274  and  _277
REMARK  115  A    between atoms: _277  and  _278
REMARK  116  A    between atoms: _281  and  _283
REMARK  117  A    between atoms: _283  and  _284
REMARK  118  A    between atoms: _283  and  _286
REMARK  119  A    between atoms: _286  and  _287
REMARK  120  A    between atoms: _290  and  _292
REMARK  121  A    between atoms: _292  and  _293
REMARK  122  A    between atoms: _292  and  _295
REMARK  123  A    between atoms: _295  and  _296
REMARK  124  A    between atoms: _299  and  _301
REMARK  125  A    between atoms: _301  and  _302
REMARK  126  A    between atoms: _304  and  _306
REMARK  127  A    between atoms: _306  and  _307
REMARK  128  A    between atoms: _310  and  _312
REMARK  129  A    between atoms: _312  and  _313
REMARK  130  A    between atoms: _312  and  _315
REMARK  131  A    between atoms: _315  and  _316
REMARK  132  A    between atoms: _319  and  _321
REMARK  133  A    between atoms: _321  and  _322
REMARK  134  A    between atoms: _321  and  _324
REMARK  135  A    between atoms: _324  and  _325
REMARK  136  A    between atoms: _328  and  _330
REMARK  137  A    between atoms: _330  and  _331
REMARK  138  A    between atoms: _330  and  _333
REMARK  139  A    between atoms: _333  and  _334
REMARK  140  A    between atoms: _336  and  _338
REMARK  141  A    between atoms: _338  and  _339
REMARK  142  A    between atoms: _338  and  _341
REMARK  143  A    between atoms: _341  and  _342
REMARK  144  A    between atoms: _345  and  _347
REMARK  145  A    between atoms: _347  and  _348
REMARK  146  A    between atoms: _347  and  _350
REMARK  147  A    between atoms: _350  and  _351
REMARK  148  A    between atoms: _351  and  _352
REMARK  149  A    between atoms: _352  and  _353
REMARK  150  A    between atoms: _353  and  _354
REMARK  151  A    between atoms: _358  and  _360
REMARK  152  A    between atoms: _360  and  _361
REMARK  153  A    between atoms: _360  and  _363
REMARK  154  A    between atoms: _363  and  _364
REMARK  155  A    between atoms: _364  and  _365
REMARK  156  A    between atoms: _367  and  _369
REMARK  157  A    between atoms: _369  and  _370
REMARK  158  A    between atoms: _369  and  _372
REMARK  159  A    between atoms: _375  and  _377
REMARK  160  A    between atoms: _377  and  _378
REMARK  161  A    between atoms: _380  and  _382
REMARK  162  A    between atoms: _382  and  _383
REMARK  163  A    between atoms: _385  and  _387
REMARK  164  A    between atoms: _387  and  _388
REMARK  165  A    between atoms: _387  and  _390
REMARK  166  A    between atoms: _390  and  _391
REMARK  167  A    between atoms: _394  and  _396
REMARK  168  A    between atoms: _396  and  _397
REMARK  169  A    between atoms: _399  and  _401
REMARK  170  A    between atoms: _401  and  _402
REMARK  171  A    between atoms: _404  and  _406
REMARK  172  A    between atoms: _406  and  _407
REMARK  173  A    between atoms: _406  and  _409
REMARK  174  A    between atoms: _409  and  _410
REMARK  175  A    between atoms: _416  and  _418
REMARK  176  A    between atoms: _418  and  _419
REMARK  177  A    between atoms: _418  and  _421
REMARK  178  A    between atoms: _421  and  _422
REMARK  179  A    between atoms: _425  and  _427
REMARK  180  A    between atoms: _427  and  _428
REMARK  181  A    between atoms: _427  and  _430
REMARK  182  A    between atoms: _433  and  _435
REMARK  183  A    between atoms: _435  and  _436
REMARK  184  A    between atoms: _435  and  _438
REMARK  185  A    between atoms: _438  and  _439
REMARK  186  A    between atoms: _442  and  _444
REMARK  187  A    between atoms: _444  and  _445
REMARK  188  A    between atoms: _444  and  _447
REMARK  189  A    between atoms: _447  and  _448
REMARK  190  A    between atoms: _452  and  _453
REMARK  191  A    between atoms: _458  and  _460
REMARK  192  A    between atoms: _460  and  _461
REMARK  193  A    between atoms: _460  and  _463
REMARK  194  A    between atoms: _463  and  _464
REMARK  195  A    between atoms: _467  and  _469
REMARK  196  A    between atoms: _469  and  _470
REMARK  197  A    between atoms: _469  and  _472
REMARK  198  A    between atoms: _472  and  _473
REMARK  199  A    between atoms: _478  and  _480
REMARK  200  A    between atoms: _480  and  _481
REMARK  201  A    between atoms: _480  and  _483
REMARK  202  A    between atoms: _483  and  _484
REMARK  203  A    between atoms: _487  and  _489
REMARK  204  A    between atoms: _489  and  _490
REMARK  205  A    between atoms: _489  and  _492
REMARK  206  A    between atoms: _492  and  _493
REMARK  207  A    between atoms: _496  and  _498
REMARK  208  A    between atoms: _498  and  _499
REMARK  209  A    between atoms: _501  and  _503
REMARK  210  A    between atoms: _503  and  _504
REMARK  211  A    between atoms: _503  and  _506
REMARK  212  A    between atoms: _506  and  _507
REMARK  213  A    between atoms: _507  and  _508
REMARK  214  A    between atoms: _508  and  _509
REMARK                            x       y       z     vdW  Elec       q    Type
REMARK                         _______ _______ _______ _____ _____    ______ ____
ROOT
ATOM      1  C   GLY A   5      -4.233  13.012  26.373  0.00  0.00    +0.243 C 
ATOM      2  N   ILE A   6      -4.829  13.270  27.534  0.00  0.00    -0.297 N 
ATOM      3  H   ILE A   6      -5.814  13.605  27.543  0.00  0.00    +0.150 HD
ATOM      4  O   GLY A   5      -3.041  12.670  26.339  0.00  0.00    -0.273 OA
ENDROOT
BRANCH   2   5
ATOM      5  CA  ILE A   6      -4.114  13.088  28.799  0.00  0.00    +0.149 C 
BRANCH   5   6
ATOM      6  C   ILE A   6      -4.050  11.580  29.000  0.00  0.00    +0.241 C 
ATOM      7  N   GLY A   7      -2.895  11.075  29.399  0.00  0.00    -0.295 N 
ATOM      8  H   GLY A   7      -2.096  11.703  29.619  0.00  0.00    +0.150 HD
ATOM      9  O   ILE A   6      -5.016  10.873  28.731  0.00  0.00    -0.273 OA
BRANCH   7  10
ATOM     10  CA  GLY A   7      -2.751   9.632  29.528  0.00  0.00    +0.176 C 
BRANCH  10  11
ATOM     11  C   GLY A   7      -2.788   8.902  28.193  0.00  0.00    +0.243 C 
ATOM     12  O   GLY A   7      -3.194   7.745  28.181  0.00  0.00    -0.273 OA
ATOM     13  N   GLY A   8      -2.378   9.498  27.068  0.00  0.00    -0.295 N 
ATOM     14  H   GLY A   8      -2.064  10.489  27.092  0.00  0.00    +0.150 HD
BRANCH  13  15
ATOM     15  CA  GLY A   8      -2.369   8.766  25.810  0.00  0.00    +0.176 C 
BRANCH  15  16
ATOM     16  C   GLY A   8      -2.368   9.529  24.523  0.00  0.00    +0.243 C 
ATOM     17  O   GLY A   8      -2.076  10.720  24.426  0.00  0.00    -0.273 OA
ATOM     18  N   PHE A   9      -2.704   8.697  23.558  0.00  0.00    -0.297 N 
ATOM     19  H   PHE A   9      -2.921   7.715  23.823  0.00  0.00    +0.150 HD
BRANCH  18  20
ATOM     20  CA  PHE A   9      -2.794   9.049  22.154  0.00  0.00    +0.153 C 
BRANCH  20  21
ATOM     21  C   PHE A   9      -3.840   8.083  21.579  0.00  0.00    +0.241 C 
ATOM     22  O   PHE A   9      -3.791   6.921  21.984  0.00  0.00    -0.273 OA
ATOM     23  N   ILE A  10      -4.840   8.451  20.770  0.00  0.00    -0.298 N 
ATOM     24  H   ILE A  10      -4.943   9.454  20.515  0.00  0.00    +0.150 HD
BRANCH  23  25
ATOM     25  CA  ILE A  10      -5.804   7.467  20.229  0.00  0.00    +0.137 C 
BRANCH  25  26
ATOM     26  C   ILE A  10      -5.833   7.576  18.708  0.00  0.00    +0.227 C 
ATOM     27  O   ILE A  10      -5.558   8.645  18.152  0.00  0.00    -0.286 OA
ENDBRANCH  25  26
BRANCH  25  28
ATOM     28  CB  ILE A  10      -7.305   7.605  20.692  0.00  0.00    +0.026 C 
ATOM     29  CG2 ILE A  10      -7.329   7.273  22.178  0.00  0.00    +0.002 C 
BRANCH  28  30
ATOM     30  CG1 ILE A  10      -7.916   8.970  20.388  0.00  0.00    +0.002 C 
ATOM     31  CD1 ILE A  10      -9.427   8.985  20.570  0.00  0.00    +0.000 C 
ENDBRANCH  28  30
ENDBRANCH  25  28
ENDBRANCH  23  25
ENDBRANCH  20  21
BRANCH  20  32
ATOM     32  CB  PHE A   9      -1.452   8.829  21.461  0.00  0.00    +0.055 C 
BRANCH  32  33
ATOM     33  CG  PHE A   9      -0.773  10.094  21.003  0.00  0.00    -0.020 A 
ATOM     34  CD2 PHE A   9       0.141  10.759  21.841  0.00  0.00    -0.004 A 
ATOM     35  CE2 PHE A   9       0.743  11.949  21.426  0.00  0.00    -0.000 A 
ATOM     36  CZ  PHE A   9       0.441  12.477  20.175  0.00  0.00    -0.000 A 
ATOM     37  CE1 PHE A   9      -0.453  11.832  19.326  0.00  0.00    -0.000 A 
ATOM     38  CD1 PHE A   9      -1.051  10.649  19.739  0.00  0.00    -0.004 A 
ENDBRANCH  32  33
ENDBRANCH  20  32
ENDBRANCH  18  20
ENDBRANCH  15  16
ENDBRANCH  13  15
ENDBRANCH  10  11
ENDBRANCH   7  10
ENDBRANCH   5   6
BRANCH   5  39
ATOM     39  CB  ILE A   6      -4.843  13.762  30.020  0.00  0.00    +0.027 C 
ATOM     40  CG2 ILE A   6      -4.712  15.281  29.907  0.00  0.00    +0.002 C 
BRANCH  39  41
ATOM     41  CG1 ILE A   6      -6.327  13.410  30.047  0.00  0.00    +0.002 C 
ATOM     42  CD1 ILE A   6      -6.861  13.277  31.454  0.00  0.00    +0.000 C 
ENDBRANCH  39  41
ENDBRANCH   5  39
ENDBRANCH   2   5
BRANCH   1  43
ATOM     43  CA  GLY A   5      -5.009  13.196  25.073  0.00  0.00    +0.176 C 
BRANCH  43  45
ATOM     44  C   GLY A   4      -4.088  13.707  22.886  0.00  0.00    +0.243 C 
ATOM     45  N   GLY A   5      -4.079  12.999  23.997  0.00  0.00    -0.295 N 
ATOM     46  H   GLY A   5      -3.358  12.256  24.100  0.00  0.00    +0.150 HD
ATOM     47  O   GLY A   4      -4.798  14.672  22.578  0.00  0.00    -0.273 OA
BRANCH  44  48
ATOM     48  CA  GLY A   4      -3.008  13.245  21.967  0.00  0.00    +0.176 C 
BRANCH  48  50
ATOM     49  C   VAL A   3      -4.036  12.598  19.883  0.00  0.00    +0.241 C 
ATOM     50  N   GLY A   4      -3.302  13.452  20.579  0.00  0.00    -0.295 N 
ATOM     51  H   GLY A   4      -2.927  14.298  20.105  0.00  0.00    +0.150 HD
ATOM     52  O   VAL A   3      -4.562  11.548  20.286  0.00  0.00    -0.273 OA
BRANCH  49  53
ATOM     53  CA  VAL A   3      -4.093  13.076  18.436  0.00  0.00    +0.149 C 
BRANCH  53  55
ATOM     54  C   MET A   2      -3.638  11.708  16.504  0.00  0.00    +0.241 C 
ATOM     55  N   VAL A   3      -4.341  11.886  17.610  0.00  0.00    -0.297 N 
ATOM     56  H   VAL A   3      -5.062  11.191  17.892  0.00  0.00    +0.150 HD
ATOM     57  O   MET A   2      -2.850  12.546  16.051  0.00  0.00    -0.273 OA
BRANCH  54  58
ATOM     58  CA  MET A   2      -3.951  10.461  15.713  0.00  0.00    +0.149 C 
BRANCH  58  60
ATOM     59  C   LYS A   1      -5.056  10.275  13.606  0.00  0.00    +0.238 C 
ATOM     60  N   MET A   2      -4.195  10.901  14.369  0.00  0.00    -0.297 N 
ATOM     61  H   MET A   2      -3.683  11.726  13.997  0.00  0.00    +0.150 HD
ATOM     62  O   LYS A   1      -5.675   9.256  13.947  0.00  0.00    -0.274 OA
BRANCH  59  63
ATOM     63  CA  LYS A   1      -5.175  10.896  12.226  0.00  0.00    +0.145 C 
BRANCH  63  64
ATOM     64  N   LYS A   1      -5.555   9.712  11.453  0.00  0.00    -0.238 NA
ATOM     65  H   LYS A   1      -5.984   8.914  11.963  0.00  0.00    +0.142 HD
ENDBRANCH  63  64
BRANCH  63  66
ATOM     66  CB  LYS A   1      -6.308  11.937  12.199  0.00  0.00    +0.026 C 
BRANCH  66  67
ATOM     67  CG  LYS A   1      -6.432  13.048  13.259  0.00  0.00    -0.000 C 
BRANCH  67  68
ATOM     68  CD  LYS A   1      -5.360  14.135  13.267  0.00  0.00    -0.024 C 
BRANCH  68  69
ATOM     69  CE  LYS A   1      -5.905  15.309  14.065  0.00  0.00    -0.086 C 
BRANCH  69  70
ATOM     70  NZ  LYS A   1      -4.895  16.376  14.339  0.00  0.00    +0.380 N 
ATOM     71  HZ1 LYS A   1      -5.340  17.141  14.886  0.00  0.00    -0.089 HD
ATOM     72  HZ2 LYS A   1      -4.106  15.973  14.883  0.00  0.00    -0.089 HD
ATOM     73  HZ3 LYS A   1      -4.539  16.754  13.438  0.00  0.00    -0.089 HD
ENDBRANCH  69  70
ENDBRANCH  68  69
ENDBRANCH  67  68
ENDBRANCH  66  67
ENDBRANCH  63  66
ENDBRANCH  59  63
ENDBRANCH  58  60
BRANCH  58  74
ATOM     74  CB  MET A   2      -2.797   9.444  15.699  0.00  0.00    +0.041 C 
BRANCH  74  75
ATOM     75  CG  MET A   2      -2.572   8.679  16.999  0.00  0.00    +0.060 C 
BRANCH  75  76
ATOM     76  SD  MET A   2      -1.573   7.188  16.826  0.00  0.00    -0.139 S 
ATOM     77  CE  MET A   2      -1.946   6.344  18.360  0.00  0.00    +0.069 C 
ENDBRANCH  75  76
ENDBRANCH  74  75
ENDBRANCH  58  74
ENDBRANCH  54  58
ENDBRANCH  53  55
BRANCH  53  78
ATOM     78  CB  VAL A   3      -5.200  14.209  18.451  0.00  0.00    +0.027 C 
ATOM     79  CG2 VAL A   3      -6.631  13.649  18.386  0.00  0.00    +0.002 C 
ATOM     80  CG1 VAL A   3      -4.859  15.157  17.315  0.00  0.00    +0.002 C 
ENDBRANCH  53  78
ENDBRANCH  49  53
ENDBRANCH  48  50
ENDBRANCH  44  48
ENDBRANCH  43  45
ENDBRANCH   1  43
TORSDOF 35
REMARK  Name = ../refined-set-2016/1bdq/1bdq_pocket.pdb
REMARK  214 active torsions:
REMARK  status: ('A' for Active; 'I' for Inactive)
REMARK    1  A    between atoms: _1  and  _3
REMARK    2  A    between atoms: _3  and  _4
REMARK    3  A    between atoms: _3  and  _6
REMARK    4  A    between atoms: _6  and  _7
REMARK    5  A    between atoms: _7  and  _8
REMARK    6  A    between atoms: _8  and  _9
REMARK    7  A    between atoms: _18  and  _20
REMARK    8  A    between atoms: _20  and  _21
REMARK    9  A    between atoms: _20  and  _23
REMARK   10  A    between atoms: _23  and  _24
REMARK   11  A    between atoms: _27  and  _29
REMARK   12  A    between atoms: _29  and  _30
REMARK   13  A    between atoms: _29  and  _32
REMARK   14  A    between atoms: _32  and  _33
REMARK   15  A    between atoms: _36  and  _38
REMARK   16  A    between atoms: _38  and  _39
REMARK   17  A    between atoms: _38  and  _41
REMARK   18  A    between atoms: _41  and  _42
REMARK   19  A    between atoms: _45  and  _47
REMARK   20  A    between atoms: _47  and  _48
REMARK   21  A    between atoms: _50  and  _52
REMARK   22  A    between atoms: _52  and  _53
REMARK   23  A    between atoms: _56  and  _58
REMARK   24  A    between atoms: _58  and  _59
REMARK   25  A    between atoms: _58  and  _61
REMARK   26  A    between atoms: _61  and  _62
REMARK   27  A    between atoms: _65  and  _67
REMARK   28  A    between atoms: _67  and  _68
REMARK   29  A    between atoms: _67  and  _70
REMARK   30  A    between atoms: _70  and  _71
REMARK   31  A    between atoms: _74  and  _76
REMARK   32  A    between atoms: _76  and  _77
REMARK   33  A    between atoms: _76  and  _79
REMARK   34  A    between atoms: _79  and  _80
REMARK   35  A    between atoms: _82  and  _84
REMARK   36  A    between atoms: _84  and  _85
REMARK   37  A    between atoms: _84  and  _87
REMARK   38  A    between atoms: _87  and  _88
REMARK   39  A    between atoms: _91  and  _93
REMARK   40  A    between atoms: _93  and  _94
REMARK   41  A    between atoms: _93  and  _96
REMARK   42  A    between atoms: _96  and  _97
REMARK   43  A    between atoms: _97  and  _98
REMARK   44  A    between atoms: _98  and  _99
REMARK   45  A    between atoms: _99  and  _100
REMARK   46  A    between atoms: _104  and  _106
REMARK   47  A    between atoms: _106  and  _107
REMARK   48  A    between atoms: _106  and  _109
REMARK   49  A    between atoms: _112  and  _114
REMARK   50  A    between atoms: _114  and  _115
REMARK   51  A    between atoms: _117  and  _119
REMARK   52  A    between atoms: _119  and  _120
REMARK   53  A    between atoms: _122  and  _124
REMARK   54  A    between atoms: _124  and  _125
REMARK   55  A    between atoms: _124  and  _127
REMARK   56  A    between atoms: _127  and  _128
REMARK   57  A    between atoms: _131  and  _133
REMARK   58  A    between atoms: _133  and  _134
REMARK   59  A    between atoms: _136  and  _138
REMARK   60  A    between atoms: _138  and  _139
REMARK   61  A    between atoms: _141  and  _143
REMARK   62  A    between atoms: _143  and  _144
REMARK   63  A    between atoms: _143  and  _146
REMARK   64  A    between atoms: _146  and  _147
REMARK   65  A    between atoms: _150  and  _152
REMARK   66  A    between atoms: _152  and  _153
REMARK   67  A    between atoms: _152  and  _155
REMARK   68  A    between atoms: _155  and  _156
REMARK   69  A    between atoms: _159  and  _161
REMARK   70  A    between atoms: _161  and  _162
REMARK   71  A    between atoms: _161  and  _164
REMARK   72  A    between atoms: _164  and  _165
REMARK   73  A    between atoms: _169  and  _170
REMARK   74  A    between atoms: _175  and  _177
REMARK   75  A    between atoms: _177  and  _178
REMARK   76  A    between atoms: _177  and  _180
REMARK   77  A    between atoms: _180  and  _181
REMARK   78  A    between atoms: _184  and  _186
REMARK   79  A    between atoms: _186  and  _187
REMARK   80  A    between atoms: _186  and  _189
REMARK   81  A    between atoms: _189  and  _190
REMARK   82  A    between atoms: _195  and  _197
REMARK   83  A    between atoms: _197  and  _198
REMARK   84  A    between atoms: _197  and  _200
REMARK   85  A    between atoms: _200  and  _201
REMARK   86  A    between atoms: _204  and  _206
REMARK   87  A    between atoms: _206  and  _207
REMARK   88  A    between atoms: _206  and  _209
REMARK   89  A    between atoms: _209  and  _210
REMARK   90  A    between atoms: _213  and  _215
REMARK   91  A    between atoms: _215  and  _216
REMARK   92  A    between atoms: _218  and  _220
REMARK   93  A    between atoms: _220  and  _221
REMARK   94  A    between atoms: _220  and  _223
REMARK   95  A    between atoms: _223  and  _224
REMARK   96  A    between atoms: _224  and  _225
REMARK   97  A    between atoms: _225  and  _226
REMARK   98  A    between atoms: _235  and  _237
REMARK   99  A    between atoms: _237  and  _238
REMARK  100  A    between atoms: _237  and  _240
REMARK  101  A    between atoms: _240  and  _241
REMARK  102  A    between atoms: _246  and  _248
REMARK  103  A    between atoms: _248  and  _249
REMARK  104  A    between atoms: _248  and  _251
REMARK  105  A    between atoms: _251  and  _252
REMARK  106  A    between atoms: _252  and  _253
REMARK  107  A    between atoms: _253  and  _254
REMARK  108  A    between atoms: _263  and  _265
REMARK  109  A    between atoms: _265  and  _266
REMARK  110  A    between atoms: _265  and  _268
REMARK  111  A    between atoms: _268  and  _269
REMARK  112  A    between atoms: _272  and  _274
REMARK  113  A    between atoms: _274  and  _275
REMARK  114  A    between atoms: _274  and  _277
REMARK  115  A    between atoms: _277  and  _278
REMARK  116  A    between atoms: _281  and  _283
REMARK  117  A    between atoms: _283  and  _284
REMARK  118  A    between atoms: _283  and  _286
REMARK  119  A    between atoms: _286  and  _287
REMARK  120  A    between atoms: _290  and  _292
REMARK  121  A    between atoms: _292  and  _293
REMARK  122  A    between atoms: _292  and  _295
REMARK  123  A    between atoms: _295  and  _296
REMARK  124  A    between atoms: _299  and  _301
REMARK  125  A    between atoms: _301  and  _302
REMARK  126  A    between atoms: _304  and  _306
REMARK  127  A    between atoms: _306  and  _307
REMARK  128  A    between atoms: _310  and  _312
REMARK  129  A    between atoms: _312  and  _313
REMARK  130  A    between atoms: _312  and  _315
REMARK  131  A    between atoms: _315  and  _316
REMARK  132  A    between atoms: _319  and  _321
REMARK  133  A    between atoms: _321  and  _322
REMARK  134  A    between atoms: _321  and  _324
REMARK  135  A    between atoms: _324  and  _325
REMARK  136  A    between atoms: _328  and  _330
REMARK  137  A    between atoms: _330  and  _331
REMARK  138  A    between atoms: _330  and  _333
REMARK  139  A    between atoms: _333  and  _334
REMARK  140  A    between atoms: _336  and  _338
REMARK  141  A    between atoms: _338  and  _339
REMARK  142  A    between atoms: _338  and  _341
REMARK  143  A    between atoms: _341  and  _342
REMARK  144  A    between atoms: _345  and  _347
REMARK  145  A    between atoms: _347  and  _348
REMARK  146  A    between atoms: _347  and  _350
REMARK  147  A    between atoms: _350  and  _351
REMARK  148  A    between atoms: _351  and  _352
REMARK  149  A    between atoms: _352  and  _353
REMARK  150  A    between atoms: _353  and  _354
REMARK  151  A    between atoms: _358  and  _360
REMARK  152  A    between atoms: _360  and  _361
REMARK  153  A    between atoms: _360  and  _363
REMARK  154  A    between atoms: _363  and  _364
REMARK  155  A    between atoms: _364  and  _365
REMARK  156  A    between atoms: _367  and  _369
REMARK  157  A    between atoms: _369  and  _370
REMARK  158  A    between atoms: _369  and  _372
REMARK  159  A    between atoms: _375  and  _377
REMARK  160  A    between atoms: _377  and  _378
REMARK  161  A    between atoms: _380  and  _382
REMARK  162  A    between atoms: _382  and  _383
REMARK  163  A    between atoms: _385  and  _387
REMARK  164  A    between atoms: _387  and  _388
REMARK  165  A    between atoms: _387  and  _390
REMARK  166  A    between atoms: _390  and  _391
REMARK  167  A    between atoms: _394  and  _396
REMARK  168  A    between atoms: _396  and  _397
REMARK  169  A    between atoms: _399  and  _401
REMARK  170  A    between atoms: _401  and  _402
REMARK  171  A    between atoms: _404  and  _406
REMARK  172  A    between atoms: _406  and  _407
REMARK  173  A    between atoms: _406  and  _409
REMARK  174  A    between atoms: _409  and  _410
REMARK  175  A    between atoms: _416  and  _418
REMARK  176  A    between atoms: _418  and  _419
REMARK  177  A    between atoms: _418  and  _421
REMARK  178  A    between atoms: _421  and  _422
REMARK  179  A    between atoms: _425  and  _427
REMARK  180  A    between atoms: _427  and  _428
REMARK  181  A    between atoms: _427  and  _430
REMARK  182  A    between atoms: _433  and  _435
REMARK  183  A    between atoms: _435  and  _436
REMARK  184  A    between atoms: _435  and  _438
REMARK  185  A    between atoms: _438  and  _439
REMARK  186  A    between atoms: _442  and  _444
REMARK  187  A    between atoms: _444  and  _445
REMARK  188  A    between atoms: _444  and  _447
REMARK  189  A    between atoms: _447  and  _448
REMARK  190  A    between atoms: _452  and  _453
REMARK  191  A    between atoms: _458  and  _460
REMARK  192  A    between atoms: _460  and  _461
REMARK  193  A    between atoms: _460  and  _463
REMARK  194  A    between atoms: _463  and  _464
REMARK  195  A    between atoms: _467  and  _469
REMARK  196  A    between atoms: _469  and  _470
REMARK  197  A    between atoms: _469  and  _472
REMARK  198  A    between atoms: _472  and  _473
REMARK  199  A    between atoms: _478  and  _480
REMARK  200  A    between atoms: _480  and  _481
REMARK  201  A    between atoms: _480  and  _483
REMARK  202  A    between atoms: _483  and  _484
REMARK  203  A    between atoms: _487  and  _489
REMARK  204  A    between atoms: _489  and  _490
REMARK  205  A    between atoms: _489  and  _492
REMARK  206  A    between atoms: _492  and  _493
REMARK  207  A    between atoms: _496  and  _498
REMARK  208  A    between atoms: _498  and  _499
REMARK  209  A    between atoms: _501  and  _503
REMARK  210  A    between atoms: _503  and  _504
REMARK  211  A    between atoms: _503  and  _506
REMARK  212  A    between atoms: _506  and  _507
REMARK  213  A    between atoms: _507  and  _508
REMARK  214  A    between atoms: _508  and  _509
REMARK                            x       y       z     vdW  Elec       q    Type
REMARK                         _______ _______ _______ _____ _____    ______ ____
ROOT
ATOM      1  CA  VAL A   1      -9.075   8.295  14.999  0.00  0.00    +0.133 C 
ENDROOT
BRANCH   1   2
ATOM      2  CB  VAL A   1      -9.485   9.694  15.574  0.00  0.00    +0.023 C 
ATOM      3  CG2 VAL A   1     -10.062   9.448  16.953  0.00  0.00    +0.002 C 
ATOM      4  CG1 VAL A   1      -8.326  10.669  15.655  0.00  0.00    +0.002 C 
ENDBRANCH   1   2
BRANCH   1   5
ATOM      5  N   VAL A   1      -7.770   7.813  15.445  0.00  0.00    -0.239 NA
ATOM      6  H   VAL A   1      -6.923   8.329  15.132  0.00  0.00    +0.142 HD
ENDBRANCH   1   5
BRANCH   1   7
ATOM      7  C   VAL A   1      -9.098   8.395  13.482  0.00  0.00    +0.224 C 
ATOM      8  O   VAL A   1      -8.064   8.279  12.807  0.00  0.00    -0.287 OA
ENDBRANCH   1   7
TORSDOF 3
REMARK  Name = ../refined-set-2016/1bdq/1bdq_pocket.pdb
REMARK  214 active torsions:
REMARK  status: ('A' for Active; 'I' for Inactive)
REMARK    1  A    between atoms: _1  and  _3
REMARK    2  A    between atoms: _3  and  _4
REMARK    3  A    between atoms: _3  and  _6
REMARK    4  A    between atoms: _6  and  _7
REMARK    5  A    between atoms: _7  and  _8
REMARK    6  A    between atoms: _8  and  _9
REMARK    7  A    between atoms: _18  and  _20
REMARK    8  A    between atoms: _20  and  _21
REMARK    9  A    between atoms: _20  and  _23
REMARK   10  A    between atoms: _23  and  _24
REMARK   11  A    between atoms: _27  and  _29
REMARK   12  A    between atoms: _29  and  _30
REMARK   13  A    between atoms: _29  and  _32
REMARK   14  A    between atoms: _32  and  _33
REMARK   15  A    between atoms: _36  and  _38
REMARK   16  A    between atoms: _38  and  _39
REMARK   17  A    between atoms: _38  and  _41
REMARK   18  A    between atoms: _41  and  _42
REMARK   19  A    between atoms: _45  and  _47
REMARK   20  A    between atoms: _47  and  _48
REMARK   21  A    between atoms: _50  and  _52
REMARK   22  A    between atoms: _52  and  _53
REMARK   23  A    between atoms: _56  and  _58
REMARK   24  A    between atoms: _58  and  _59
REMARK   25  A    between atoms: _58  and  _61
REMARK   26  A    between atoms: _61  and  _62
REMARK   27  A    between atoms: _65  and  _67
REMARK   28  A    between atoms: _67  and  _68
REMARK   29  A    between atoms: _67  and  _70
REMARK   30  A    between atoms: _70  and  _71
REMARK   31  A    between atoms: _74  and  _76
REMARK   32  A    between atoms: _76  and  _77
REMARK   33  A    between atoms: _76  and  _79
REMARK   34  A    between atoms: _79  and  _80
REMARK   35  A    between atoms: _82  and  _84
REMARK   36  A    between atoms: _84  and  _85
REMARK   37  A    between atoms: _84  and  _87
REMARK   38  A    between atoms: _87  and  _88
REMARK   39  A    between atoms: _91  and  _93
REMARK   40  A    between atoms: _93  and  _94
REMARK   41  A    between atoms: _93  and  _96
REMARK   42  A    between atoms: _96  and  _97
REMARK   43  A    between atoms: _97  and  _98
REMARK   44  A    between atoms: _98  and  _99
REMARK   45  A    between atoms: _99  and  _100
REMARK   46  A    between atoms: _104  and  _106
REMARK   47  A    between atoms: _106  and  _107
REMARK   48  A    between atoms: _106  and  _109
REMARK   49  A    between atoms: _112  and  _114
REMARK   50  A    between atoms: _114  and  _115
REMARK   51  A    between atoms: _117  and  _119
REMARK   52  A    between atoms: _119  and  _120
REMARK   53  A    between atoms: _122  and  _124
REMARK   54  A    between atoms: _124  and  _125
REMARK   55  A    between atoms: _124  and  _127
REMARK   56  A    between atoms: _127  and  _128
REMARK   57  A    between atoms: _131  and  _133
REMARK   58  A    between atoms: _133  and  _134
REMARK   59  A    between atoms: _136  and  _138
REMARK   60  A    between atoms: _138  and  _139
REMARK   61  A    between atoms: _141  and  _143
REMARK   62  A    between atoms: _143  and  _144
REMARK   63  A    between atoms: _143  and  _146
REMARK   64  A    between atoms: _146  and  _147
REMARK   65  A    between atoms: _150  and  _152
REMARK   66  A    between atoms: _152  and  _153
REMARK   67  A    between atoms: _152  and  _155
REMARK   68  A    between atoms: _155  and  _156
REMARK   69  A    between atoms: _159  and  _161
REMARK   70  A    between atoms: _161  and  _162
REMARK   71  A    between atoms: _161  and  _164
REMARK   72  A    between atoms: _164  and  _165
REMARK   73  A    between atoms: _169  and  _170
REMARK   74  A    between atoms: _175  and  _177
REMARK   75  A    between atoms: _177  and  _178
REMARK   76  A    between atoms: _177  and  _180
REMARK   77  A    between atoms: _180  and  _181
REMARK   78  A    between atoms: _184  and  _186
REMARK   79  A    between atoms: _186  and  _187
REMARK   80  A    between atoms: _186  and  _189
REMARK   81  A    between atoms: _189  and  _190
REMARK   82  A    between atoms: _195  and  _197
REMARK   83  A    between atoms: _197  and  _198
REMARK   84  A    between atoms: _197  and  _200
REMARK   85  A    between atoms: _200  and  _201
REMARK   86  A    between atoms: _204  and  _206
REMARK   87  A    between atoms: _206  and  _207
REMARK   88  A    between atoms: _206  and  _209
REMARK   89  A    between atoms: _209  and  _210
REMARK   90  A    between atoms: _213  and  _215
REMARK   91  A    between atoms: _215  and  _216
REMARK   92  A    between atoms: _218  and  _220
REMARK   93  A    between atoms: _220  and  _221
REMARK   94  A    between atoms: _220  and  _223
REMARK   95  A    between atoms: _223  and  _224
REMARK   96  A    between atoms: _224  and  _225
REMARK   97  A    between atoms: _225  and  _226
REMARK   98  A    between atoms: _235  and  _237
REMARK   99  A    between atoms: _237  and  _238
REMARK  100  A    between atoms: _237  and  _240
REMARK  101  A    between atoms: _240  and  _241
REMARK  102  A    between atoms: _246  and  _248
REMARK  103  A    between atoms: _248  and  _249
REMARK  104  A    between atoms: _248  and  _251
REMARK  105  A    between atoms: _251  and  _252
REMARK  106  A    between atoms: _252  and  _253
REMARK  107  A    between atoms: _253  and  _254
REMARK  108  A    between atoms: _263  and  _265
REMARK  109  A    between atoms: _265  and  _266
REMARK  110  A    between atoms: _265  and  _268
REMARK  111  A    between atoms: _268  and  _269
REMARK  112  A    between atoms: _272  and  _274
REMARK  113  A    between atoms: _274  and  _275
REMARK  114  A    between atoms: _274  and  _277
REMARK  115  A    between atoms: _277  and  _278
REMARK  116  A    between atoms: _281  and  _283
REMARK  117  A    between atoms: _283  and  _284
REMARK  118  A    between atoms: _283  and  _286
REMARK  119  A    between atoms: _286  and  _287
REMARK  120  A    between atoms: _290  and  _292
REMARK  121  A    between atoms: _292  and  _293
REMARK  122  A    between atoms: _292  and  _295
REMARK  123  A    between atoms: _295  and  _296
REMARK  124  A    between atoms: _299  and  _301
REMARK  125  A    between atoms: _301  and  _302
REMARK  126  A    between atoms: _304  and  _306
REMARK  127  A    between atoms: _306  and  _307
REMARK  128  A    between atoms: _310  and  _312
REMARK  129  A    between atoms: _312  and  _313
REMARK  130  A    between atoms: _312  and  _315
REMARK  131  A    between atoms: _315  and  _316
REMARK  132  A    between atoms: _319  and  _321
REMARK  133  A    between atoms: _321  and  _322
REMARK  134  A    between atoms: _321  and  _324
REMARK  135  A    between atoms: _324  and  _325
REMARK  136  A    between atoms: _328  and  _330
REMARK  137  A    between atoms: _330  and  _331
REMARK  138  A    between atoms: _330  and  _333
REMARK  139  A    between atoms: _333  and  _334
REMARK  140  A    between atoms: _336  and  _338
REMARK  141  A    between atoms: _338  and  _339
REMARK  142  A    between atoms: _338  and  _341
REMARK  143  A    between atoms: _341  and  _342
REMARK  144  A    between atoms: _345  and  _347
REMARK  145  A    between atoms: _347  and  _348
REMARK  146  A    between atoms: _347  and  _350
REMARK  147  A    between atoms: _350  and  _351
REMARK  148  A    between atoms: _351  and  _352
REMARK  149  A    between atoms: _352  and  _353
REMARK  150  A    between atoms: _353  and  _354
REMARK  151  A    between atoms: _358  and  _360
REMARK  152  A    between atoms: _360  and  _361
REMARK  153  A    between atoms: _360  and  _363
REMARK  154  A    between atoms: _363  and  _364
REMARK  155  A    between atoms: _364  and  _365
REMARK  156  A    between atoms: _367  and  _369
REMARK  157  A    between atoms: _369  and  _370
REMARK  158  A    between atoms: _369  and  _372
REMARK  159  A    between atoms: _375  and  _377
REMARK  160  A    between atoms: _377  and  _378
REMARK  161  A    between atoms: _380  and  _382
REMARK  162  A    between atoms: _382  and  _383
REMARK  163  A    between atoms: _385  and  _387
REMARK  164  A    between atoms: _387  and  _388
REMARK  165  A    between atoms: _387  and  _390
REMARK  166  A    between atoms: _390  and  _391
REMARK  167  A    between atoms: _394  and  _396
REMARK  168  A    between atoms: _396  and  _397
REMARK  169  A    between atoms: _399  and  _401
REMARK  170  A    between atoms: _401  and  _402
REMARK  171  A    between atoms: _404  and  _406
REMARK  172  A    between atoms: _406  and  _407
REMARK  173  A    between atoms: _406  and  _409
REMARK  174  A    between atoms: _409  and  _410
REMARK  175  A    between atoms: _416  and  _418
REMARK  176  A    between atoms: _418  and  _419
REMARK  177  A    between atoms: _418  and  _421
REMARK  178  A    between atoms: _421  and  _422
REMARK  179  A    between atoms: _425  and  _427
REMARK  180  A    between atoms: _427  and  _428
REMARK  181  A    between atoms: _427  and  _430
REMARK  182  A    between atoms: _433  and  _435
REMARK  183  A    between atoms: _435  and  _436
REMARK  184  A    between atoms: _435  and  _438
REMARK  185  A    between atoms: _438  and  _439
REMARK  186  A    between atoms: _442  and  _444
REMARK  187  A    between atoms: _444  and  _445
REMARK  188  A    between atoms: _444  and  _447
REMARK  189  A    between atoms: _447  and  _448
REMARK  190  A    between atoms: _452  and  _453
REMARK  191  A    between atoms: _458  and  _460
REMARK  192  A    between atoms: _460  and  _461
REMARK  193  A    between atoms: _460  and  _463
REMARK  194  A    between atoms: _463  and  _464
REMARK  195  A    between atoms: _467  and  _469
REMARK  196  A    between atoms: _469  and  _470
REMARK  197  A    between atoms: _469  and  _472
REMARK  198  A    between atoms: _472  and  _473
REMARK  199  A    between atoms: _478  and  _480
REMARK  200  A    between atoms: _480  and  _481
REMARK  201  A    between atoms: _480  and  _483
REMARK  202  A    between atoms: _483  and  _484
REMARK  203  A    between atoms: _487  and  _489
REMARK  204  A    between atoms: _489  and  _490
REMARK  205  A    between atoms: _489  and  _492
REMARK  206  A    between atoms: _492  and  _493
REMARK  207  A    between atoms: _496  and  _498
REMARK  208  A    between atoms: _498  and  _499
REMARK  209  A    between atoms: _501  and  _503
REMARK  210  A    between atoms: _503  and  _504
REMARK  211  A    between atoms: _503  and  _506
REMARK  212  A    between atoms: _506  and  _507
REMARK  213  A    between atoms: _507  and  _508
REMARK  214  A    between atoms: _508  and  _509
REMARK                            x       y       z     vdW  Elec       q    Type
REMARK                         _______ _______ _______ _____ _____    ______ ____
ROOT
ATOM      1  CA  LEU A   1     -13.316  12.156  14.273  0.00  0.00    +0.133 C 
ENDROOT
BRANCH   1   2
ATOM      2  N   LEU A   1     -14.114  13.355  14.184  0.00  0.00    -0.239 NA
ATOM      3  H   LEU A   1     -14.174  13.992  15.004  0.00  0.00    +0.142 HD
ENDBRANCH   1   2
BRANCH   1   4
ATOM      4  C   LEU A   1     -14.208  11.140  14.960  0.00  0.00    +0.224 C 
ATOM      5  O   LEU A   1     -14.960  11.494  15.873  0.00  0.00    -0.287 OA
ENDBRANCH   1   4
BRANCH   1   6
ATOM      6  CB  LEU A   1     -12.049  12.408  15.112  0.00  0.00    +0.025 C 
BRANCH   6   7
ATOM      7  CG  LEU A   1     -11.215  13.667  14.831  0.00  0.00    +0.002 C 
ATOM      8  CD2 LEU A   1     -10.221  13.850  15.961  0.00  0.00    +0.000 C 
ATOM      9  CD1 LEU A   1     -10.530  13.558  13.490  0.00  0.00    +0.000 C 
ENDBRANCH   6   7
ENDBRANCH   1   6
TORSDOF 4
REMARK  Name = ../refined-set-2016/1bdq/1bdq_pocket.pdb
REMARK  214 active torsions:
REMARK  status: ('A' for Active; 'I' for Inactive)
REMARK    1  A    between atoms: _1  and  _3
REMARK    2  A    between atoms: _3  and  _4
REMARK    3  A    between atoms: _3  and  _6
REMARK    4  A    between atoms: _6  and  _7
REMARK    5  A    between atoms: _7  and  _8
REMARK    6  A    between atoms: _8  and  _9
REMARK    7  A    between atoms: _18  and  _20
REMARK    8  A    between atoms: _20  and  _21
REMARK    9  A    between atoms: _20  and  _23
REMARK   10  A    between atoms: _23  and  _24
REMARK   11  A    between atoms: _27  and  _29
REMARK   12  A    between atoms: _29  and  _30
REMARK   13  A    between atoms: _29  and  _32
REMARK   14  A    between atoms: _32  and  _33
REMARK   15  A    between atoms: _36  and  _38
REMARK   16  A    between atoms: _38  and  _39
REMARK   17  A    between atoms: _38  and  _41
REMARK   18  A    between atoms: _41  and  _42
REMARK   19  A    between atoms: _45  and  _47
REMARK   20  A    between atoms: _47  and  _48
REMARK   21  A    between atoms: _50  and  _52
REMARK   22  A    between atoms: _52  and  _53
REMARK   23  A    between atoms: _56  and  _58
REMARK   24  A    between atoms: _58  and  _59
REMARK   25  A    between atoms: _58  and  _61
REMARK   26  A    between atoms: _61  and  _62
REMARK   27  A    between atoms: _65  and  _67
REMARK   28  A    between atoms: _67  and  _68
REMARK   29  A    between atoms: _67  and  _70
REMARK   30  A    between atoms: _70  and  _71
REMARK   31  A    between atoms: _74  and  _76
REMARK   32  A    between atoms: _76  and  _77
REMARK   33  A    between atoms: _76  and  _79
REMARK   34  A    between atoms: _79  and  _80
REMARK   35  A    between atoms: _82  and  _84
REMARK   36  A    between atoms: _84  and  _85
REMARK   37  A    between atoms: _84  and  _87
REMARK   38  A    between atoms: _87  and  _88
REMARK   39  A    between atoms: _91  and  _93
REMARK   40  A    between atoms: _93  and  _94
REMARK   41  A    between atoms: _93  and  _96
REMARK   42  A    between atoms: _96  and  _97
REMARK   43  A    between atoms: _97  and  _98
REMARK   44  A    between atoms: _98  and  _99
REMARK   45  A    between atoms: _99  and  _100
REMARK   46  A    between atoms: _104  and  _106
REMARK   47  A    between atoms: _106  and  _107
REMARK   48  A    between atoms: _106  and  _109
REMARK   49  A    between atoms: _112  and  _114
REMARK   50  A    between atoms: _114  and  _115
REMARK   51  A    between atoms: _117  and  _119
REMARK   52  A    between atoms: _119  and  _120
REMARK   53  A    between atoms: _122  and  _124
REMARK   54  A    between atoms: _124  and  _125
REMARK   55  A    between atoms: _124  and  _127
REMARK   56  A    between atoms: _127  and  _128
REMARK   57  A    between atoms: _131  and  _133
REMARK   58  A    between atoms: _133  and  _134
REMARK   59  A    between atoms: _136  and  _138
REMARK   60  A    between atoms: _138  and  _139
REMARK   61  A    between atoms: _141  and  _143
REMARK   62  A    between atoms: _143  and  _144
REMARK   63  A    between atoms: _143  and  _146
REMARK   64  A    between atoms: _146  and  _147
REMARK   65  A    between atoms: _150  and  _152
REMARK   66  A    between atoms: _152  and  _153
REMARK   67  A    between atoms: _152  and  _155
REMARK   68  A    between atoms: _155  and  _156
REMARK   69  A    between atoms: _159  and  _161
REMARK   70  A    between atoms: _161  and  _162
REMARK   71  A    between atoms: _161  and  _164
REMARK   72  A    between atoms: _164  and  _165
REMARK   73  A    between atoms: _169  and  _170
REMARK   74  A    between atoms: _175  and  _177
REMARK   75  A    between atoms: _177  and  _178
REMARK   76  A    between atoms: _177  and  _180
REMARK   77  A    between atoms: _180  and  _181
REMARK   78  A    between atoms: _184  and  _186
REMARK   79  A    between atoms: _186  and  _187
REMARK   80  A    between atoms: _186  and  _189
REMARK   81  A    between atoms: _189  and  _190
REMARK   82  A    between atoms: _195  and  _197
REMARK   83  A    between atoms: _197  and  _198
REMARK   84  A    between atoms: _197  and  _200
REMARK   85  A    between atoms: _200  and  _201
REMARK   86  A    between atoms: _204  and  _206
REMARK   87  A    between atoms: _206  and  _207
REMARK   88  A    between atoms: _206  and  _209
REMARK   89  A    between atoms: _209  and  _210
REMARK   90  A    between atoms: _213  and  _215
REMARK   91  A    between atoms: _215  and  _216
REMARK   92  A    between atoms: _218  and  _220
REMARK   93  A    between atoms: _220  and  _221
REMARK   94  A    between atoms: _220  and  _223
REMARK   95  A    between atoms: _223  and  _224
REMARK   96  A    between atoms: _224  and  _225
REMARK   97  A    between atoms: _225  and  _226
REMARK   98  A    between atoms: _235  and  _237
REMARK   99  A    between atoms: _237  and  _238
REMARK  100  A    between atoms: _237  and  _240
REMARK  101  A    between atoms: _240  and  _241
REMARK  102  A    between atoms: _246  and  _248
REMARK  103  A    between atoms: _248  and  _249
REMARK  104  A    between atoms: _248  and  _251
REMARK  105  A    between atoms: _251  and  _252
REMARK  106  A    between atoms: _252  and  _253
REMARK  107  A    between atoms: _253  and  _254
REMARK  108  A    between atoms: _263  and  _265
REMARK  109  A    between atoms: _265  and  _266
REMARK  110  A    between atoms: _265  and  _268
REMARK  111  A    between atoms: _268  and  _269
REMARK  112  A    between atoms: _272  and  _274
REMARK  113  A    between atoms: _274  and  _275
REMARK  114  A    between atoms: _274  and  _277
REMARK  115  A    between atoms: _277  and  _278
REMARK  116  A    between atoms: _281  and  _283
REMARK  117  A    between atoms: _283  and  _284
REMARK  118  A    between atoms: _283  and  _286
REMARK  119  A    between atoms: _286  and  _287
REMARK  120  A    between atoms: _290  and  _292
REMARK  121  A    between atoms: _292  and  _293
REMARK  122  A    between atoms: _292  and  _295
REMARK  123  A    between atoms: _295  and  _296
REMARK  124  A    between atoms: _299  and  _301
REMARK  125  A    between atoms: _301  and  _302
REMARK  126  A    between atoms: _304  and  _306
REMARK  127  A    between atoms: _306  and  _307
REMARK  128  A    between atoms: _310  and  _312
REMARK  129  A    between atoms: _312  and  _313
REMARK  130  A    between atoms: _312  and  _315
REMARK  131  A    between atoms: _315  and  _316
REMARK  132  A    between atoms: _319  and  _321
REMARK  133  A    between atoms: _321  and  _322
REMARK  134  A    between atoms: _321  and  _324
REMARK  135  A    between atoms: _324  and  _325
REMARK  136  A    between atoms: _328  and  _330
REMARK  137  A    between atoms: _330  and  _331
REMARK  138  A    between atoms: _330  and  _333
REMARK  139  A    between atoms: _333  and  _334
REMARK  140  A    between atoms: _336  and  _338
REMARK  141  A    between atoms: _338  and  _339
REMARK  142  A    between atoms: _338  and  _341
REMARK  143  A    between atoms: _341  and  _342
REMARK  144  A    between atoms: _345  and  _347
REMARK  145  A    between atoms: _347  and  _348
REMARK  146  A    between atoms: _347  and  _350
REMARK  147  A    between atoms: _350  and  _351
REMARK  148  A    between atoms: _351  and  _352
REMARK  149  A    between atoms: _352  and  _353
REMARK  150  A    between atoms: _353  and  _354
REMARK  151  A    between atoms: _358  and  _360
REMARK  152  A    between atoms: _360  and  _361
REMARK  153  A    between atoms: _360  and  _363
REMARK  154  A    between atoms: _363  and  _364
REMARK  155  A    between atoms: _364  and  _365
REMARK  156  A    between atoms: _367  and  _369
REMARK  157  A    between atoms: _369  and  _370
REMARK  158  A    between atoms: _369  and  _372
REMARK  159  A    between atoms: _375  and  _377
REMARK  160  A    between atoms: _377  and  _378
REMARK  161  A    between atoms: _380  and  _382
REMARK  162  A    between atoms: _382  and  _383
REMARK  163  A    between atoms: _385  and  _387
REMARK  164  A    between atoms: _387  and  _388
REMARK  165  A    between atoms: _387  and  _390
REMARK  166  A    between atoms: _390  and  _391
REMARK  167  A    between atoms: _394  and  _396
REMARK  168  A    between atoms: _396  and  _397
REMARK  169  A    between atoms: _399  and  _401
REMARK  170  A    between atoms: _401  and  _402
REMARK  171  A    between atoms: _404  and  _406
REMARK  172  A    between atoms: _406  and  _407
REMARK  173  A    between atoms: _406  and  _409
REMARK  174  A    between atoms: _409  and  _410
REMARK  175  A    between atoms: _416  and  _418
REMARK  176  A    between atoms: _418  and  _419
REMARK  177  A    between atoms: _418  and  _421
REMARK  178  A    between atoms: _421  and  _422
REMARK  179  A    between atoms: _425  and  _427
REMARK  180  A    between atoms: _427  and  _428
REMARK  181  A    between atoms: _427  and  _430
REMARK  182  A    between atoms: _433  and  _435
REMARK  183  A    between atoms: _435  and  _436
REMARK  184  A    between atoms: _435  and  _438
REMARK  185  A    between atoms: _438  and  _439
REMARK  186  A    between atoms: _442  and  _444
REMARK  187  A    between atoms: _444  and  _445
REMARK  188  A    between atoms: _444  and  _447
REMARK  189  A    between atoms: _447  and  _448
REMARK  190  A    between atoms: _452  and  _453
REMARK  191  A    between atoms: _458  and  _460
REMARK  192  A    between atoms: _460  and  _461
REMARK  193  A    between atoms: _460  and  _463
REMARK  194  A    between atoms: _463  and  _464
REMARK  195  A    between atoms: _467  and  _469
REMARK  196  A    between atoms: _469  and  _470
REMARK  197  A    between atoms: _469  and  _472
REMARK  198  A    between atoms: _472  and  _473
REMARK  199  A    between atoms: _478  and  _480
REMARK  200  A    between atoms: _480  and  _481
REMARK  201  A    between atoms: _480  and  _483
REMARK  202  A    between atoms: _483  and  _484
REMARK  203  A    between atoms: _487  and  _489
REMARK  204  A    between atoms: _489  and  _490
REMARK  205  A    between atoms: _489  and  _492
REMARK  206  A    between atoms: _492  and  _493
REMARK  207  A    between atoms: _496  and  _498
REMARK  208  A    between atoms: _498  and  _499
REMARK  209  A    between atoms: _501  and  _503
REMARK  210  A    between atoms: _503  and  _504
REMARK  211  A    between atoms: _503  and  _506
REMARK  212  A    between atoms: _506  and  _507
REMARK  213  A    between atoms: _507  and  _508
REMARK  214  A    between atoms: _508  and  _509
REMARK                            x       y       z     vdW  Elec       q    Type
REMARK                         _______ _______ _______ _____ _____    ______ ____
ROOT
ATOM      1  C   ASN A   4     -17.994  14.284  23.390  0.00  0.00    +0.241 C 
ATOM      2  O   ASN A   4     -18.663  14.983  24.160  0.00  0.00    -0.273 OA
ATOM      3  N   ILE A   5     -17.045  14.742  22.599  0.00  0.00    -0.297 N 
ATOM      4  H   ILE A   5     -16.633  14.094  21.898  0.00  0.00    +0.150 HD
ENDROOT
BRANCH   3   5
ATOM      5  CA  ILE A   5     -16.541  16.109  22.654  0.00  0.00    +0.149 C 
BRANCH   5   6
ATOM      6  C   ILE A   5     -16.847  16.994  21.443  0.00  0.00    +0.241 C 
ATOM      7  N   ILE A   6     -17.156  18.276  21.641  0.00  0.00    -0.297 N 
ATOM      8  H   ILE A   6     -17.216  18.629  22.617  0.00  0.00    +0.150 HD
ATOM      9  O   ILE A   5     -16.831  16.481  20.315  0.00  0.00    -0.273 OA
BRANCH   7  10
ATOM     10  CA  ILE A   6     -17.413  19.204  20.544  0.00  0.00    +0.149 C 
BRANCH  10  11
ATOM     11  C   ILE A   6     -16.283  20.182  20.845  0.00  0.00    +0.241 C 
ATOM     12  O   ILE A   6     -16.391  20.927  21.827  0.00  0.00    -0.273 OA
ATOM     13  N   GLY A   7     -15.214  20.112  20.059  0.00  0.00    -0.295 N 
ATOM     14  H   GLY A   7     -15.227  19.473  19.239  0.00  0.00    +0.150 HD
BRANCH  13  15
ATOM     15  CA  GLY A   7     -14.027  20.909  20.320  0.00  0.00    +0.176 C 
BRANCH  15  16
ATOM     16  C   GLY A   7     -14.086  22.241  19.614  0.00  0.00    +0.243 C 
ATOM     17  N   ARG A   8     -13.037  23.052  19.746  0.00  0.00    -0.298 N 
ATOM     18  H   ARG A   8     -12.222  22.720  20.300  0.00  0.00    +0.150 HD
ATOM     19  O   GLY A   7     -15.048  22.503  18.871  0.00  0.00    -0.273 OA
BRANCH  17  20
ATOM     20  CA  ARG A   8     -12.977  24.386  19.150  0.00  0.00    +0.137 C 
BRANCH  20  21
ATOM     21  C   ARG A   8     -13.292  24.450  17.657  0.00  0.00    +0.227 C 
ATOM     22  O   ARG A   8     -13.944  25.415  17.262  0.00  0.00    -0.286 OA
ENDBRANCH  20  21
BRANCH  20  23
ATOM     23  CB  ARG A   8     -11.614  25.007  19.401  0.00  0.00    +0.031 C 
BRANCH  23  24
ATOM     24  CG  ARG A   8     -11.412  25.330  20.879  0.00  0.00    +0.045 C 
BRANCH  24  25
ATOM     25  CD  ARG A   8     -10.153  26.140  21.181  0.00  0.00    +0.174 C 
BRANCH  25  26
ATOM     26  NE  ARG A   8      -8.938  25.573  20.595  0.00  0.00    -0.265 N 
ATOM     27  HE  ARG A   8      -8.588  24.684  21.005  0.00  0.00    +0.259 HD
ATOM     28  CZ  ARG A   8      -8.241  26.087  19.589  0.00  0.00    +0.342 C 
ATOM     29  NH2 ARG A   8      -7.122  25.484  19.200  0.00  0.00    -0.292 N 
ATOM     30 HH21 ARG A   8      -6.802  24.620  19.683  0.00  0.00    +0.255 HD
ATOM     31 HH22 ARG A   8      -6.566  25.876  18.413  0.00  0.00    +0.255 HD
ATOM     32  NH1 ARG A   8      -8.616  27.207  18.995  0.00  0.00    -0.292 N 
ATOM     33 HH11 ARG A   8      -9.472  27.703  19.314  0.00  0.00    +0.255 HD
ATOM     34 HH12 ARG A   8      -8.055  27.592  18.209  0.00  0.00    +0.255 HD
ENDBRANCH  25  26
ENDBRANCH  24  25
ENDBRANCH  23  24
ENDBRANCH  20  23
ENDBRANCH  17  20
ENDBRANCH  15  16
ENDBRANCH  13  15
ENDBRANCH  10  11
BRANCH  10  35
ATOM     35  CB  ILE A   6     -18.763  19.939  20.643  0.00  0.00    +0.027 C 
ATOM     36  CG2 ILE A   6     -18.826  21.116  19.673  0.00  0.00    +0.002 C 
BRANCH  35  37
ATOM     37  CG1 ILE A   6     -19.875  18.919  20.346  0.00  0.00    +0.002 C 
ATOM     38  CD1 ILE A   6     -19.754  18.086  19.073  0.00  0.00    +0.000 C 
ENDBRANCH  35  37
ENDBRANCH  10  35
ENDBRANCH   7  10
ENDBRANCH   5   6
BRANCH   5  39
ATOM     39  CB  ILE A   5     -15.009  15.963  22.880  0.00  0.00    +0.027 C 
ATOM     40  CG2 ILE A   5     -14.313  17.296  22.877  0.00  0.00    +0.002 C 
BRANCH  39  41
ATOM     41  CG1 ILE A   5     -14.766  15.296  24.225  0.00  0.00    +0.002 C 
ATOM     42  CD1 ILE A   5     -13.837  14.119  24.090  0.00  0.00    +0.000 C 
ENDBRANCH  39  41
ENDBRANCH   5  39
ENDBRANCH   3   5
BRANCH   1  43
ATOM     43  CA  ASN A   4     -18.331  12.825  23.174  0.00  0.00    +0.158 C 
BRANCH  43  45
ATOM     44  C   ILE A   3     -17.179  11.719  24.988  0.00  0.00    +0.241 C 
ATOM     45  N   ASN A   4     -18.299  12.221  24.488  0.00  0.00    -0.297 N 
ATOM     46  H   ASN A   4     -19.172  12.180  25.051  0.00  0.00    +0.150 HD
ATOM     47  O   ILE A   3     -16.118  11.649  24.362  0.00  0.00    -0.273 OA
BRANCH  44  48
ATOM     48  CA  ILE A   3     -17.246  11.117  26.378  0.00  0.00    +0.149 C 
BRANCH  48  51
ATOM     49  C   PRO A   2     -16.599   8.795  26.530  0.00  0.00    +0.241 C 
ATOM     50  O   PRO A   2     -17.767   8.441  26.752  0.00  0.00    -0.273 OA
ATOM     51  N   ILE A   3     -16.238  10.068  26.356  0.00  0.00    -0.297 N 
ATOM     52  H   ILE A   3     -15.238  10.310  26.205  0.00  0.00    +0.150 HD
BRANCH  49  55
ATOM     53  C   THR A   1     -14.520   7.729  24.200  0.00  0.00    +0.244 C 
ATOM     54  N   PRO A   2     -14.393   7.959  25.530  0.00  0.00    -0.272 N 
ATOM     55  CA  PRO A   2     -15.469   7.764  26.507  0.00  0.00    +0.152 C 
ATOM     56  CB  PRO A   2     -14.734   7.672  27.845  0.00  0.00    +0.031 C 
ATOM     57  CG  PRO A   2     -13.690   8.706  27.642  0.00  0.00    +0.024 C 
ATOM     58  CD  PRO A   2     -13.168   8.264  26.290  0.00  0.00    +0.094 C 
ATOM     59  O   THR A   1     -15.545   7.227  23.724  0.00  0.00    -0.273 OA
BRANCH  53  60
ATOM     60  CA  THR A   1     -13.398   8.088  23.243  0.00  0.00    +0.172 C 
BRANCH  60  61
ATOM     61  N   THR A   1     -13.402   7.124  22.152  0.00  0.00    -0.236 NA
ATOM     62  H   THR A   1     -14.013   7.286  21.326  0.00  0.00    +0.142 HD
ENDBRANCH  60  61
BRANCH  60  63
ATOM     63  CB  THR A   1     -13.641   9.577  22.783  0.00  0.00    +0.135 C 
ATOM     64  CG2 THR A   1     -14.866   9.681  21.873  0.00  0.00    +0.034 C 
BRANCH  63  65
ATOM     65  OG1 THR A   1     -13.804  10.421  23.948  0.00  0.00    -0.383 OA
ATOM     66  HG1 THR A   1     -14.581  10.107  24.476  0.00  0.00    +0.210 HD
ENDBRANCH  63  65
ENDBRANCH  60  63
ENDBRANCH  53  60
ENDBRANCH  49  55
ENDBRANCH  48  51
BRANCH  48  67
ATOM     67  CB  ILE A   3     -16.955  12.192  27.534  0.00  0.00    +0.027 C 
ATOM     68  CG2 ILE A   3     -16.020  13.306  27.091  0.00  0.00    +0.002 C 
BRANCH  67  69
ATOM     69  CG1 ILE A   3     -18.278  12.869  27.935  0.00  0.00    +0.002 C 
ATOM     70  CD1 ILE A   3     -19.224  12.058  28.801  0.00  0.00    +0.000 C 
ENDBRANCH  67  69
ENDBRANCH  48  67
ENDBRANCH  44  48
ENDBRANCH  43  45
BRANCH  43  71
ATOM     71  CB  ASN A   4     -19.715  12.814  22.503  0.00  0.00    +0.114 C 
BRANCH  71  72
ATOM     72  CG  ASN A   4     -20.332  11.477  22.166  0.00  0.00    +0.222 C 
ATOM     73  ND2 ASN A   4     -21.652  11.424  22.118  0.00  0.00    -0.329 N 
ATOM     74 HD21 ASN A   4     -22.215  12.272  22.333  0.00  0.00    +0.145 HD
ATOM     75 HD22 ASN A   4     -22.128  10.534  21.866  0.00  0.00    +0.145 HD
ATOM     76  OD1 ASN A   4     -19.640  10.490  21.917  0.00  0.00    -0.275 OA
ENDBRANCH  71  72
ENDBRANCH  43  71
ENDBRANCH   1  43
TORSDOF 29
REMARK  Name = ../refined-set-2016/1bdq/1bdq_pocket.pdb
REMARK  214 active torsions:
REMARK  status: ('A' for Active; 'I' for Inactive)
REMARK    1  A    between atoms: _1  and  _3
REMARK    2  A    between atoms: _3  and  _4
REMARK    3  A    between atoms: _3  and  _6
REMARK    4  A    between atoms: _6  and  _7
REMARK    5  A    between atoms: _7  and  _8
REMARK    6  A    between atoms: _8  and  _9
REMARK    7  A    between atoms: _18  and  _20
REMARK    8  A    between atoms: _20  and  _21
REMARK    9  A    between atoms: _20  and  _23
REMARK   10  A    between atoms: _23  and  _24
REMARK   11  A    between atoms: _27  and  _29
REMARK   12  A    between atoms: _29  and  _30
REMARK   13  A    between atoms: _29  and  _32
REMARK   14  A    between atoms: _32  and  _33
REMARK   15  A    between atoms: _36  and  _38
REMARK   16  A    between atoms: _38  and  _39
REMARK   17  A    between atoms: _38  and  _41
REMARK   18  A    between atoms: _41  and  _42
REMARK   19  A    between atoms: _45  and  _47
REMARK   20  A    between atoms: _47  and  _48
REMARK   21  A    between atoms: _50  and  _52
REMARK   22  A    between atoms: _52  and  _53
REMARK   23  A    between atoms: _56  and  _58
REMARK   24  A    between atoms: _58  and  _59
REMARK   25  A    between atoms: _58  and  _61
REMARK   26  A    between atoms: _61  and  _62
REMARK   27  A    between atoms: _65  and  _67
REMARK   28  A    between atoms: _67  and  _68
REMARK   29  A    between atoms: _67  and  _70
REMARK   30  A    between atoms: _70  and  _71
REMARK   31  A    between atoms: _74  and  _76
REMARK   32  A    between atoms: _76  and  _77
REMARK   33  A    between atoms: _76  and  _79
REMARK   34  A    between atoms: _79  and  _80
REMARK   35  A    between atoms: _82  and  _84
REMARK   36  A    between atoms: _84  and  _85
REMARK   37  A    between atoms: _84  and  _87
REMARK   38  A    between atoms: _87  and  _88
REMARK   39  A    between atoms: _91  and  _93
REMARK   40  A    between atoms: _93  and  _94
REMARK   41  A    between atoms: _93  and  _96
REMARK   42  A    between atoms: _96  and  _97
REMARK   43  A    between atoms: _97  and  _98
REMARK   44  A    between atoms: _98  and  _99
REMARK   45  A    between atoms: _99  and  _100
REMARK   46  A    between atoms: _104  and  _106
REMARK   47  A    between atoms: _106  and  _107
REMARK   48  A    between atoms: _106  and  _109
REMARK   49  A    between atoms: _112  and  _114
REMARK   50  A    between atoms: _114  and  _115
REMARK   51  A    between atoms: _117  and  _119
REMARK   52  A    between atoms: _119  and  _120
REMARK   53  A    between atoms: _122  and  _124
REMARK   54  A    between atoms: _124  and  _125
REMARK   55  A    between atoms: _124  and  _127
REMARK   56  A    between atoms: _127  and  _128
REMARK   57  A    between atoms: _131  and  _133
REMARK   58  A    between atoms: _133  and  _134
REMARK   59  A    between atoms: _136  and  _138
REMARK   60  A    between atoms: _138  and  _139
REMARK   61  A    between atoms: _141  and  _143
REMARK   62  A    between atoms: _143  and  _144
REMARK   63  A    between atoms: _143  and  _146
REMARK   64  A    between atoms: _146  and  _147
REMARK   65  A    between atoms: _150  and  _152
REMARK   66  A    between atoms: _152  and  _153
REMARK   67  A    between atoms: _152  and  _155
REMARK   68  A    between atoms: _155  and  _156
REMARK   69  A    between atoms: _159  and  _161
REMARK   70  A    between atoms: _161  and  _162
REMARK   71  A    between atoms: _161  and  _164
REMARK   72  A    between atoms: _164  and  _165
REMARK   73  A    between atoms: _169  and  _170
REMARK   74  A    between atoms: _175  and  _177
REMARK   75  A    between atoms: _177  and  _178
REMARK   76  A    between atoms: _177  and  _180
REMARK   77  A    between atoms: _180  and  _181
REMARK   78  A    between atoms: _184  and  _186
REMARK   79  A    between atoms: _186  and  _187
REMARK   80  A    between atoms: _186  and  _189
REMARK   81  A    between atoms: _189  and  _190
REMARK   82  A    between atoms: _195  and  _197
REMARK   83  A    between atoms: _197  and  _198
REMARK   84  A    between atoms: _197  and  _200
REMARK   85  A    between atoms: _200  and  _201
REMARK   86  A    between atoms: _204  and  _206
REMARK   87  A    between atoms: _206  and  _207
REMARK   88  A    between atoms: _206  and  _209
REMARK   89  A    between atoms: _209  and  _210
REMARK   90  A    between atoms: _213  and  _215
REMARK   91  A    between atoms: _215  and  _216
REMARK   92  A    between atoms: _218  and  _220
REMARK   93  A    between atoms: _220  and  _221
REMARK   94  A    between atoms: _220  and  _223
REMARK   95  A    between atoms: _223  and  _224
REMARK   96  A    between atoms: _224  and  _225
REMARK   97  A    between atoms: _225  and  _226
REMARK   98  A    between atoms: _235  and  _237
REMARK   99  A    between atoms: _237  and  _238
REMARK  100  A    between atoms: _237  and  _240
REMARK  101  A    between atoms: _240  and  _241
REMARK  102  A    between atoms: _246  and  _248
REMARK  103  A    between atoms: _248  and  _249
REMARK  104  A    between atoms: _248  and  _251
REMARK  105  A    between atoms: _251  and  _252
REMARK  106  A    between atoms: _252  and  _253
REMARK  107  A    between atoms: _253  and  _254
REMARK  108  A    between atoms: _263  and  _265
REMARK  109  A    between atoms: _265  and  _266
REMARK  110  A    between atoms: _265  and  _268
REMARK  111  A    between atoms: _268  and  _269
REMARK  112  A    between atoms: _272  and  _274
REMARK  113  A    between atoms: _274  and  _275
REMARK  114  A    between atoms: _274  and  _277
REMARK  115  A    between atoms: _277  and  _278
REMARK  116  A    between atoms: _281  and  _283
REMARK  117  A    between atoms: _283  and  _284
REMARK  118  A    between atoms: _283  and  _286
REMARK  119  A    between atoms: _286  and  _287
REMARK  120  A    between atoms: _290  and  _292
REMARK  121  A    between atoms: _292  and  _293
REMARK  122  A    between atoms: _292  and  _295
REMARK  123  A    between atoms: _295  and  _296
REMARK  124  A    between atoms: _299  and  _301
REMARK  125  A    between atoms: _301  and  _302
REMARK  126  A    between atoms: _304  and  _306
REMARK  127  A    between atoms: _306  and  _307
REMARK  128  A    between atoms: _310  and  _312
REMARK  129  A    between atoms: _312  and  _313
REMARK  130  A    between atoms: _312  and  _315
REMARK  131  A    between atoms: _315  and  _316
REMARK  132  A    between atoms: _319  and  _321
REMARK  133  A    between atoms: _321  and  _322
REMARK  134  A    between atoms: _321  and  _324
REMARK  135  A    between atoms: _324  and  _325
REMARK  136  A    between atoms: _328  and  _330
REMARK  137  A    between atoms: _330  and  _331
REMARK  138  A    between atoms: _330  and  _333
REMARK  139  A    between atoms: _333  and  _334
REMARK  140  A    between atoms: _336  and  _338
REMARK  141  A    between atoms: _338  and  _339
REMARK  142  A    between atoms: _338  and  _341
REMARK  143  A    between atoms: _341  and  _342
REMARK  144  A    between atoms: _345  and  _347
REMARK  145  A    between atoms: _347  and  _348
REMARK  146  A    between atoms: _347  and  _350
REMARK  147  A    between atoms: _350  and  _351
REMARK  148  A    between atoms: _351  and  _352
REMARK  149  A    between atoms: _352  and  _353
REMARK  150  A    between atoms: _353  and  _354
REMARK  151  A    between atoms: _358  and  _360
REMARK  152  A    between atoms: _360  and  _361
REMARK  153  A    between atoms: _360  and  _363
REMARK  154  A    between atoms: _363  and  _364
REMARK  155  A    between atoms: _364  and  _365
REMARK  156  A    between atoms: _367  and  _369
REMARK  157  A    between atoms: _369  and  _370
REMARK  158  A    between atoms: _369  and  _372
REMARK  159  A    between atoms: _375  and  _377
REMARK  160  A    between atoms: _377  and  _378
REMARK  161  A    between atoms: _380  and  _382
REMARK  162  A    between atoms: _382  and  _383
REMARK  163  A    between atoms: _385  and  _387
REMARK  164  A    between atoms: _387  and  _388
REMARK  165  A    between atoms: _387  and  _390
REMARK  166  A    between atoms: _390  and  _391
REMARK  167  A    between atoms: _394  and  _396
REMARK  168  A    between atoms: _396  and  _397
REMARK  169  A    between atoms: _399  and  _401
REMARK  170  A    between atoms: _401  and  _402
REMARK  171  A    between atoms: _404  and  _406
REMARK  172  A    between atoms: _406  and  _407
REMARK  173  A    between atoms: _406  and  _409
REMARK  174  A    between atoms: _409  and  _410
REMARK  175  A    between atoms: _416  and  _418
REMARK  176  A    between atoms: _418  and  _419
REMARK  177  A    between atoms: _418  and  _421
REMARK  178  A    between atoms: _421  and  _422
REMARK  179  A    between atoms: _425  and  _427
REMARK  180  A    between atoms: _427  and  _428
REMARK  181  A    between atoms: _427  and  _430
REMARK  182  A    between atoms: _433  and  _435
REMARK  183  A    between atoms: _435  and  _436
REMARK  184  A    between atoms: _435  and  _438
REMARK  185  A    between atoms: _438  and  _439
REMARK  186  A    between atoms: _442  and  _444
REMARK  187  A    between atoms: _444  and  _445
REMARK  188  A    between atoms: _444  and  _447
REMARK  189  A    between atoms: _447  and  _448
REMARK  190  A    between atoms: _452  and  _453
REMARK  191  A    between atoms: _458  and  _460
REMARK  192  A    between atoms: _460  and  _461
REMARK  193  A    between atoms: _460  and  _463
REMARK  194  A    between atoms: _463  and  _464
REMARK  195  A    between atoms: _467  and  _469
REMARK  196  A    between atoms: _469  and  _470
REMARK  197  A    between atoms: _469  and  _472
REMARK  198  A    between atoms: _472  and  _473
REMARK  199  A    between atoms: _478  and  _480
REMARK  200  A    between atoms: _480  and  _481
REMARK  201  A    between atoms: _480  and  _483
REMARK  202  A    between atoms: _483  and  _484
REMARK  203  A    between atoms: _487  and  _489
REMARK  204  A    between atoms: _489  and  _490
REMARK  205  A    between atoms: _489  and  _492
REMARK  206  A    between atoms: _492  and  _493
REMARK  207  A    between atoms: _496  and  _498
REMARK  208  A    between atoms: _498  and  _499
REMARK  209  A    between atoms: _501  and  _503
REMARK  210  A    between atoms: _503  and  _504
REMARK  211  A    between atoms: _503  and  _506
REMARK  212  A    between atoms: _506  and  _507
REMARK  213  A    between atoms: _507  and  _508
REMARK  214  A    between atoms: _508  and  _509
REMARK                            x       y       z     vdW  Elec       q    Type
REMARK                         _______ _______ _______ _____ _____    ______ ____
ROOT
ATOM      1  O   HOH     1     -13.888  13.202  34.157  0.00  0.00    +0.000 OA
ENDROOT
TORSDOF 0
REMARK  Name = ../refined-set-2016/1bdq/1bdq_pocket.pdb
REMARK  214 active torsions:
REMARK  status: ('A' for Active; 'I' for Inactive)
REMARK    1  A    between atoms: _1  and  _3
REMARK    2  A    between atoms: _3  and  _4
REMARK    3  A    between atoms: _3  and  _6
REMARK    4  A    between atoms: _6  and  _7
REMARK    5  A    between atoms: _7  and  _8
REMARK    6  A    between atoms: _8  and  _9
REMARK    7  A    between atoms: _18  and  _20
REMARK    8  A    between atoms: _20  and  _21
REMARK    9  A    between atoms: _20  and  _23
REMARK   10  A    between atoms: _23  and  _24
REMARK   11  A    between atoms: _27  and  _29
REMARK   12  A    between atoms: _29  and  _30
REMARK   13  A    between atoms: _29  and  _32
REMARK   14  A    between atoms: _32  and  _33
REMARK   15  A    between atoms: _36  and  _38
REMARK   16  A    between atoms: _38  and  _39
REMARK   17  A    between atoms: _38  and  _41
REMARK   18  A    between atoms: _41  and  _42
REMARK   19  A    between atoms: _45  and  _47
REMARK   20  A    between atoms: _47  and  _48
REMARK   21  A    between atoms: _50  and  _52
REMARK   22  A    between atoms: _52  and  _53
REMARK   23  A    between atoms: _56  and  _58
REMARK   24  A    between atoms: _58  and  _59
REMARK   25  A    between atoms: _58  and  _61
REMARK   26  A    between atoms: _61  and  _62
REMARK   27  A    between atoms: _65  and  _67
REMARK   28  A    between atoms: _67  and  _68
REMARK   29  A    between atoms: _67  and  _70
REMARK   30  A    between atoms: _70  and  _71
REMARK   31  A    between atoms: _74  and  _76
REMARK   32  A    between atoms: _76  and  _77
REMARK   33  A    between atoms: _76  and  _79
REMARK   34  A    between atoms: _79  and  _80
REMARK   35  A    between atoms: _82  and  _84
REMARK   36  A    between atoms: _84  and  _85
REMARK   37  A    between atoms: _84  and  _87
REMARK   38  A    between atoms: _87  and  _88
REMARK   39  A    between atoms: _91  and  _93
REMARK   40  A    between atoms: _93  and  _94
REMARK   41  A    between atoms: _93  and  _96
REMARK   42  A    between atoms: _96  and  _97
REMARK   43  A    between atoms: _97  and  _98
REMARK   44  A    between atoms: _98  and  _99
REMARK   45  A    between atoms: _99  and  _100
REMARK   46  A    between atoms: _104  and  _106
REMARK   47  A    between atoms: _106  and  _107
REMARK   48  A    between atoms: _106  and  _109
REMARK   49  A    between atoms: _112  and  _114
REMARK   50  A    between atoms: _114  and  _115
REMARK   51  A    between atoms: _117  and  _119
REMARK   52  A    between atoms: _119  and  _120
REMARK   53  A    between atoms: _122  and  _124
REMARK   54  A    between atoms: _124  and  _125
REMARK   55  A    between atoms: _124  and  _127
REMARK   56  A    between atoms: _127  and  _128
REMARK   57  A    between atoms: _131  and  _133
REMARK   58  A    between atoms: _133  and  _134
REMARK   59  A    between atoms: _136  and  _138
REMARK   60  A    between atoms: _138  and  _139
REMARK   61  A    between atoms: _141  and  _143
REMARK   62  A    between atoms: _143  and  _144
REMARK   63  A    between atoms: _143  and  _146
REMARK   64  A    between atoms: _146  and  _147
REMARK   65  A    between atoms: _150  and  _152
REMARK   66  A    between atoms: _152  and  _153
REMARK   67  A    between atoms: _152  and  _155
REMARK   68  A    between atoms: _155  and  _156
REMARK   69  A    between atoms: _159  and  _161
REMARK   70  A    between atoms: _161  and  _162
REMARK   71  A    between atoms: _161  and  _164
REMARK   72  A    between atoms: _164  and  _165
REMARK   73  A    between atoms: _169  and  _170
REMARK   74  A    between atoms: _175  and  _177
REMARK   75  A    between atoms: _177  and  _178
REMARK   76  A    between atoms: _177  and  _180
REMARK   77  A    between atoms: _180  and  _181
REMARK   78  A    between atoms: _184  and  _186
REMARK   79  A    between atoms: _186  and  _187
REMARK   80  A    between atoms: _186  and  _189
REMARK   81  A    between atoms: _189  and  _190
REMARK   82  A    between atoms: _195  and  _197
REMARK   83  A    between atoms: _197  and  _198
REMARK   84  A    between atoms: _197  and  _200
REMARK   85  A    between atoms: _200  and  _201
REMARK   86  A    between atoms: _204  and  _206
REMARK   87  A    between atoms: _206  and  _207
REMARK   88  A    between atoms: _206  and  _209
REMARK   89  A    between atoms: _209  and  _210
REMARK   90  A    between atoms: _213  and  _215
REMARK   91  A    between atoms: _215  and  _216
REMARK   92  A    between atoms: _218  and  _220
REMARK   93  A    between atoms: _220  and  _221
REMARK   94  A    between atoms: _220  and  _223
REMARK   95  A    between atoms: _223  and  _224
REMARK   96  A    between atoms: _224  and  _225
REMARK   97  A    between atoms: _225  and  _226
REMARK   98  A    between atoms: _235  and  _237
REMARK   99  A    between atoms: _237  and  _238
REMARK  100  A    between atoms: _237  and  _240
REMARK  101  A    between atoms: _240  and  _241
REMARK  102  A    between atoms: _246  and  _248
REMARK  103  A    between atoms: _248  and  _249
REMARK  104  A    between atoms: _248  and  _251
REMARK  105  A    between atoms: _251  and  _252
REMARK  106  A    between atoms: _252  and  _253
REMARK  107  A    between atoms: _253  and  _254
REMARK  108  A    between atoms: _263  and  _265
REMARK  109  A    between atoms: _265  and  _266
REMARK  110  A    between atoms: _265  and  _268
REMARK  111  A    between atoms: _268  and  _269
REMARK  112  A    between atoms: _272  and  _274
REMARK  113  A    between atoms: _274  and  _275
REMARK  114  A    between atoms: _274  and  _277
REMARK  115  A    between atoms: _277  and  _278
REMARK  116  A    between atoms: _281  and  _283
REMARK  117  A    between atoms: _283  and  _284
REMARK  118  A    between atoms: _283  and  _286
REMARK  119  A    between atoms: _286  and  _287
REMARK  120  A    between atoms: _290  and  _292
REMARK  121  A    between atoms: _292  and  _293
REMARK  122  A    between atoms: _292  and  _295
REMARK  123  A    between atoms: _295  and  _296
REMARK  124  A    between atoms: _299  and  _301
REMARK  125  A    between atoms: _301  and  _302
REMARK  126  A    between atoms: _304  and  _306
REMARK  127  A    between atoms: _306  and  _307
REMARK  128  A    between atoms: _310  and  _312
REMARK  129  A    between atoms: _312  and  _313
REMARK  130  A    between atoms: _312  and  _315
REMARK  131  A    between atoms: _315  and  _316
REMARK  132  A    between atoms: _319  and  _321
REMARK  133  A    between atoms: _321  and  _322
REMARK  134  A    between atoms: _321  and  _324
REMARK  135  A    between atoms: _324  and  _325
REMARK  136  A    between atoms: _328  and  _330
REMARK  137  A    between atoms: _330  and  _331
REMARK  138  A    between atoms: _330  and  _333
REMARK  139  A    between atoms: _333  and  _334
REMARK  140  A    between atoms: _336  and  _338
REMARK  141  A    between atoms: _338  and  _339
REMARK  142  A    between atoms: _338  and  _341
REMARK  143  A    between atoms: _341  and  _342
REMARK  144  A    between atoms: _345  and  _347
REMARK  145  A    between atoms: _347  and  _348
REMARK  146  A    between atoms: _347  and  _350
REMARK  147  A    between atoms: _350  and  _351
REMARK  148  A    between atoms: _351  and  _352
REMARK  149  A    between atoms: _352  and  _353
REMARK  150  A    between atoms: _353  and  _354
REMARK  151  A    between atoms: _358  and  _360
REMARK  152  A    between atoms: _360  and  _361
REMARK  153  A    between atoms: _360  and  _363
REMARK  154  A    between atoms: _363  and  _364
REMARK  155  A    between atoms: _364  and  _365
REMARK  156  A    between atoms: _367  and  _369
REMARK  157  A    between atoms: _369  and  _370
REMARK  158  A    between atoms: _369  and  _372
REMARK  159  A    between atoms: _375  and  _377
REMARK  160  A    between atoms: _377  and  _378
REMARK  161  A    between atoms: _380  and  _382
REMARK  162  A    between atoms: _382  and  _383
REMARK  163  A    between atoms: _385  and  _387
REMARK  164  A    between atoms: _387  and  _388
REMARK  165  A    between atoms: _387  and  _390
REMARK  166  A    between atoms: _390  and  _391
REMARK  167  A    between atoms: _394  and  _396
REMARK  168  A    between atoms: _396  and  _397
REMARK  169  A    between atoms: _399  and  _401
REMARK  170  A    between atoms: _401  and  _402
REMARK  171  A    between atoms: _404  and  _406
REMARK  172  A    between atoms: _406  and  _407
REMARK  173  A    between atoms: _406  and  _409
REMARK  174  A    between atoms: _409  and  _410
REMARK  175  A    between atoms: _416  and  _418
REMARK  176  A    between atoms: _418  and  _419
REMARK  177  A    between atoms: _418  and  _421
REMARK  178  A    between atoms: _421  and  _422
REMARK  179  A    between atoms: _425  and  _427
REMARK  180  A    between atoms: _427  and  _428
REMARK  181  A    between atoms: _427  and  _430
REMARK  182  A    between atoms: _433  and  _435
REMARK  183  A    between atoms: _435  and  _436
REMARK  184  A    between atoms: _435  and  _438
REMARK  185  A    between atoms: _438  and  _439
REMARK  186  A    between atoms: _442  and  _444
REMARK  187  A    between atoms: _444  and  _445
REMARK  188  A    between atoms: _444  and  _447
REMARK  189  A    between atoms: _447  and  _448
REMARK  190  A    between atoms: _452  and  _453
REMARK  191  A    between atoms: _458  and  _460
REMARK  192  A    between atoms: _460  and  _461
REMARK  193  A    between atoms: _460  and  _463
REMARK  194  A    between atoms: _463  and  _464
REMARK  195  A    between atoms: _467  and  _469
REMARK  196  A    between atoms: _469  and  _470
REMARK  197  A    between atoms: _469  and  _472
REMARK  198  A    between atoms: _472  and  _473
REMARK  199  A    between atoms: _478  and  _480
REMARK  200  A    between atoms: _480  and  _481
REMARK  201  A    between atoms: _480  and  _483
REMARK  202  A    between atoms: _483  and  _484
REMARK  203  A    between atoms: _487  and  _489
REMARK  204  A    between atoms: _489  and  _490
REMARK  205  A    between atoms: _489  and  _492
REMARK  206  A    between atoms: _492  and  _493
REMARK  207  A    between atoms: _496  and  _498
REMARK  208  A    between atoms: _498  and  _499
REMARK  209  A    between atoms: _501  and  _503
REMARK  210  A    between atoms: _503  and  _504
REMARK  211  A    between atoms: _503  and  _506
REMARK  212  A    between atoms: _506  and  _507
REMARK  213  A    between atoms: _507  and  _508
REMARK  214  A    between atoms: _508  and  _509
REMARK                            x       y       z     vdW  Elec       q    Type
REMARK                         _______ _______ _______ _____ _____    ______ ____
ROOT
ATOM      1  O   HOH     1     -11.712  13.225  36.049  0.00  0.00    +0.000 OA
ENDROOT
TORSDOF 0
REMARK  Name = ../refined-set-2016/1bdq/1bdq_pocket.pdb
REMARK  214 active torsions:
REMARK  status: ('A' for Active; 'I' for Inactive)
REMARK    1  A    between atoms: _1  and  _3
REMARK    2  A    between atoms: _3  and  _4
REMARK    3  A    between atoms: _3  and  _6
REMARK    4  A    between atoms: _6  and  _7
REMARK    5  A    between atoms: _7  and  _8
REMARK    6  A    between atoms: _8  and  _9
REMARK    7  A    between atoms: _18  and  _20
REMARK    8  A    between atoms: _20  and  _21
REMARK    9  A    between atoms: _20  and  _23
REMARK   10  A    between atoms: _23  and  _24
REMARK   11  A    between atoms: _27  and  _29
REMARK   12  A    between atoms: _29  and  _30
REMARK   13  A    between atoms: _29  and  _32
REMARK   14  A    between atoms: _32  and  _33
REMARK   15  A    between atoms: _36  and  _38
REMARK   16  A    between atoms: _38  and  _39
REMARK   17  A    between atoms: _38  and  _41
REMARK   18  A    between atoms: _41  and  _42
REMARK   19  A    between atoms: _45  and  _47
REMARK   20  A    between atoms: _47  and  _48
REMARK   21  A    between atoms: _50  and  _52
REMARK   22  A    between atoms: _52  and  _53
REMARK   23  A    between atoms: _56  and  _58
REMARK   24  A    between atoms: _58  and  _59
REMARK   25  A    between atoms: _58  and  _61
REMARK   26  A    between atoms: _61  and  _62
REMARK   27  A    between atoms: _65  and  _67
REMARK   28  A    between atoms: _67  and  _68
REMARK   29  A    between atoms: _67  and  _70
REMARK   30  A    between atoms: _70  and  _71
REMARK   31  A    between atoms: _74  and  _76
REMARK   32  A    between atoms: _76  and  _77
REMARK   33  A    between atoms: _76  and  _79
REMARK   34  A    between atoms: _79  and  _80
REMARK   35  A    between atoms: _82  and  _84
REMARK   36  A    between atoms: _84  and  _85
REMARK   37  A    between atoms: _84  and  _87
REMARK   38  A    between atoms: _87  and  _88
REMARK   39  A    between atoms: _91  and  _93
REMARK   40  A    between atoms: _93  and  _94
REMARK   41  A    between atoms: _93  and  _96
REMARK   42  A    between atoms: _96  and  _97
REMARK   43  A    between atoms: _97  and  _98
REMARK   44  A    between atoms: _98  and  _99
REMARK   45  A    between atoms: _99  and  _100
REMARK   46  A    between atoms: _104  and  _106
REMARK   47  A    between atoms: _106  and  _107
REMARK   48  A    between atoms: _106  and  _109
REMARK   49  A    between atoms: _112  and  _114
REMARK   50  A    between atoms: _114  and  _115
REMARK   51  A    between atoms: _117  and  _119
REMARK   52  A    between atoms: _119  and  _120
REMARK   53  A    between atoms: _122  and  _124
REMARK   54  A    between atoms: _124  and  _125
REMARK   55  A    between atoms: _124  and  _127
REMARK   56  A    between atoms: _127  and  _128
REMARK   57  A    between atoms: _131  and  _133
REMARK   58  A    between atoms: _133  and  _134
REMARK   59  A    between atoms: _136  and  _138
REMARK   60  A    between atoms: _138  and  _139
REMARK   61  A    between atoms: _141  and  _143
REMARK   62  A    between atoms: _143  and  _144
REMARK   63  A    between atoms: _143  and  _146
REMARK   64  A    between atoms: _146  and  _147
REMARK   65  A    between atoms: _150  and  _152
REMARK   66  A    between atoms: _152  and  _153
REMARK   67  A    between atoms: _152  and  _155
REMARK   68  A    between atoms: _155  and  _156
REMARK   69  A    between atoms: _159  and  _161
REMARK   70  A    between atoms: _161  and  _162
REMARK   71  A    between atoms: _161  and  _164
REMARK   72  A    between atoms: _164  and  _165
REMARK   73  A    between atoms: _169  and  _170
REMARK   74  A    between atoms: _175  and  _177
REMARK   75  A    between atoms: _177  and  _178
REMARK   76  A    between atoms: _177  and  _180
REMARK   77  A    between atoms: _180  and  _181
REMARK   78  A    between atoms: _184  and  _186
REMARK   79  A    between atoms: _186  and  _187
REMARK   80  A    between atoms: _186  and  _189
REMARK   81  A    between atoms: _189  and  _190
REMARK   82  A    between atoms: _195  and  _197
REMARK   83  A    between atoms: _197  and  _198
REMARK   84  A    between atoms: _197  and  _200
REMARK   85  A    between atoms: _200  and  _201
REMARK   86  A    between atoms: _204  and  _206
REMARK   87  A    between atoms: _206  and  _207
REMARK   88  A    between atoms: _206  and  _209
REMARK   89  A    between atoms: _209  and  _210
REMARK   90  A    between atoms: _213  and  _215
REMARK   91  A    between atoms: _215  and  _216
REMARK   92  A    between atoms: _218  and  _220
REMARK   93  A    between atoms: _220  and  _221
REMARK   94  A    between atoms: _220  and  _223
REMARK   95  A    between atoms: _223  and  _224
REMARK   96  A    between atoms: _224  and  _225
REMARK   97  A    between atoms: _225  and  _226
REMARK   98  A    between atoms: _235  and  _237
REMARK   99  A    between atoms: _237  and  _238
REMARK  100  A    between atoms: _237  and  _240
REMARK  101  A    between atoms: _240  and  _241
REMARK  102  A    between atoms: _246  and  _248
REMARK  103  A    between atoms: _248  and  _249
REMARK  104  A    between atoms: _248  and  _251
REMARK  105  A    between atoms: _251  and  _252
REMARK  106  A    between atoms: _252  and  _253
REMARK  107  A    between atoms: _253  and  _254
REMARK  108  A    between atoms: _263  and  _265
REMARK  109  A    between atoms: _265  and  _266
REMARK  110  A    between atoms: _265  and  _268
REMARK  111  A    between atoms: _268  and  _269
REMARK  112  A    between atoms: _272  and  _274
REMARK  113  A    between atoms: _274  and  _275
REMARK  114  A    between atoms: _274  and  _277
REMARK  115  A    between atoms: _277  and  _278
REMARK  116  A    between atoms: _281  and  _283
REMARK  117  A    between atoms: _283  and  _284
REMARK  118  A    between atoms: _283  and  _286
REMARK  119  A    between atoms: _286  and  _287
REMARK  120  A    between atoms: _290  and  _292
REMARK  121  A    between atoms: _292  and  _293
REMARK  122  A    between atoms: _292  and  _295
REMARK  123  A    between atoms: _295  and  _296
REMARK  124  A    between atoms: _299  and  _301
REMARK  125  A    between atoms: _301  and  _302
REMARK  126  A    between atoms: _304  and  _306
REMARK  127  A    between atoms: _306  and  _307
REMARK  128  A    between atoms: _310  and  _312
REMARK  129  A    between atoms: _312  and  _313
REMARK  130  A    between atoms: _312  and  _315
REMARK  131  A    between atoms: _315  and  _316
REMARK  132  A    between atoms: _319  and  _321
REMARK  133  A    between atoms: _321  and  _322
REMARK  134  A    between atoms: _321  and  _324
REMARK  135  A    between atoms: _324  and  _325
REMARK  136  A    between atoms: _328  and  _330
REMARK  137  A    between atoms: _330  and  _331
REMARK  138  A    between atoms: _330  and  _333
REMARK  139  A    between atoms: _333  and  _334
REMARK  140  A    between atoms: _336  and  _338
REMARK  141  A    between atoms: _338  and  _339
REMARK  142  A    between atoms: _338  and  _341
REMARK  143  A    between atoms: _341  and  _342
REMARK  144  A    between atoms: _345  and  _347
REMARK  145  A    between atoms: _347  and  _348
REMARK  146  A    between atoms: _347  and  _350
REMARK  147  A    between atoms: _350  and  _351
REMARK  148  A    between atoms: _351  and  _352
REMARK  149  A    between atoms: _352  and  _353
REMARK  150  A    between atoms: _353  and  _354
REMARK  151  A    between atoms: _358  and  _360
REMARK  152  A    between atoms: _360  and  _361
REMARK  153  A    between atoms: _360  and  _363
REMARK  154  A    between atoms: _363  and  _364
REMARK  155  A    between atoms: _364  and  _365
REMARK  156  A    between atoms: _367  and  _369
REMARK  157  A    between atoms: _369  and  _370
REMARK  158  A    between atoms: _369  and  _372
REMARK  159  A    between atoms: _375  and  _377
REMARK  160  A    between atoms: _377  and  _378
REMARK  161  A    between atoms: _380  and  _382
REMARK  162  A    between atoms: _382  and  _383
REMARK  163  A    between atoms: _385  and  _387
REMARK  164  A    between atoms: _387  and  _388
REMARK  165  A    between atoms: _387  and  _390
REMARK  166  A    between atoms: _390  and  _391
REMARK  167  A    between atoms: _394  and  _396
REMARK  168  A    between atoms: _396  and  _397
REMARK  169  A    between atoms: _399  and  _401
REMARK  170  A    between atoms: _401  and  _402
REMARK  171  A    between atoms: _404  and  _406
REMARK  172  A    between atoms: _406  and  _407
REMARK  173  A    between atoms: _406  and  _409
REMARK  174  A    between atoms: _409  and  _410
REMARK  175  A    between atoms: _416  and  _418
REMARK  176  A    between atoms: _418  and  _419
REMARK  177  A    between atoms: _418  and  _421
REMARK  178  A    between atoms: _421  and  _422
REMARK  179  A    between atoms: _425  and  _427
REMARK  180  A    between atoms: _427  and  _428
REMARK  181  A    between atoms: _427  and  _430
REMARK  182  A    between atoms: _433  and  _435
REMARK  183  A    between atoms: _435  and  _436
REMARK  184  A    between atoms: _435  and  _438
REMARK  185  A    between atoms: _438  and  _439
REMARK  186  A    between atoms: _442  and  _444
REMARK  187  A    between atoms: _444  and  _445
REMARK  188  A    between atoms: _444  and  _447
REMARK  189  A    between atoms: _447  and  _448
REMARK  190  A    between atoms: _452  and  _453
REMARK  191  A    between atoms: _458  and  _460
REMARK  192  A    between atoms: _460  and  _461
REMARK  193  A    between atoms: _460  and  _463
REMARK  194  A    between atoms: _463  and  _464
REMARK  195  A    between atoms: _467  and  _469
REMARK  196  A    between atoms: _469  and  _470
REMARK  197  A    between atoms: _469  and  _472
REMARK  198  A    between atoms: _472  and  _473
REMARK  199  A    between atoms: _478  and  _480
REMARK  200  A    between atoms: _480  and  _481
REMARK  201  A    between atoms: _480  and  _483
REMARK  202  A    between atoms: _483  and  _484
REMARK  203  A    between atoms: _487  and  _489
REMARK  204  A    between atoms: _489  and  _490
REMARK  205  A    between atoms: _489  and  _492
REMARK  206  A    between atoms: _492  and  _493
REMARK  207  A    between atoms: _496  and  _498
REMARK  208  A    between atoms: _498  and  _499
REMARK  209  A    between atoms: _501  and  _503
REMARK  210  A    between atoms: _503  and  _504
REMARK  211  A    between atoms: _503  and  _506
REMARK  212  A    between atoms: _506  and  _507
REMARK  213  A    between atoms: _507  and  _508
REMARK  214  A    between atoms: _508  and  _509
REMARK                            x       y       z     vdW  Elec       q    Type
REMARK                         _______ _______ _______ _____ _____    ______ ____
ROOT
ATOM      1  O   HOH     1     -16.959  19.297  32.093  0.00  0.00    +0.000 OA
ENDROOT
TORSDOF 0
REMARK  Name = ../refined-set-2016/1bdq/1bdq_pocket.pdb
REMARK  214 active torsions:
REMARK  status: ('A' for Active; 'I' for Inactive)
REMARK    1  A    between atoms: _1  and  _3
REMARK    2  A    between atoms: _3  and  _4
REMARK    3  A    between atoms: _3  and  _6
REMARK    4  A    between atoms: _6  and  _7
REMARK    5  A    between atoms: _7  and  _8
REMARK    6  A    between atoms: _8  and  _9
REMARK    7  A    between atoms: _18  and  _20
REMARK    8  A    between atoms: _20  and  _21
REMARK    9  A    between atoms: _20  and  _23
REMARK   10  A    between atoms: _23  and  _24
REMARK   11  A    between atoms: _27  and  _29
REMARK   12  A    between atoms: _29  and  _30
REMARK   13  A    between atoms: _29  and  _32
REMARK   14  A    between atoms: _32  and  _33
REMARK   15  A    between atoms: _36  and  _38
REMARK   16  A    between atoms: _38  and  _39
REMARK   17  A    between atoms: _38  and  _41
REMARK   18  A    between atoms: _41  and  _42
REMARK   19  A    between atoms: _45  and  _47
REMARK   20  A    between atoms: _47  and  _48
REMARK   21  A    between atoms: _50  and  _52
REMARK   22  A    between atoms: _52  and  _53
REMARK   23  A    between atoms: _56  and  _58
REMARK   24  A    between atoms: _58  and  _59
REMARK   25  A    between atoms: _58  and  _61
REMARK   26  A    between atoms: _61  and  _62
REMARK   27  A    between atoms: _65  and  _67
REMARK   28  A    between atoms: _67  and  _68
REMARK   29  A    between atoms: _67  and  _70
REMARK   30  A    between atoms: _70  and  _71
REMARK   31  A    between atoms: _74  and  _76
REMARK   32  A    between atoms: _76  and  _77
REMARK   33  A    between atoms: _76  and  _79
REMARK   34  A    between atoms: _79  and  _80
REMARK   35  A    between atoms: _82  and  _84
REMARK   36  A    between atoms: _84  and  _85
REMARK   37  A    between atoms: _84  and  _87
REMARK   38  A    between atoms: _87  and  _88
REMARK   39  A    between atoms: _91  and  _93
REMARK   40  A    between atoms: _93  and  _94
REMARK   41  A    between atoms: _93  and  _96
REMARK   42  A    between atoms: _96  and  _97
REMARK   43  A    between atoms: _97  and  _98
REMARK   44  A    between atoms: _98  and  _99
REMARK   45  A    between atoms: _99  and  _100
REMARK   46  A    between atoms: _104  and  _106
REMARK   47  A    between atoms: _106  and  _107
REMARK   48  A    between atoms: _106  and  _109
REMARK   49  A    between atoms: _112  and  _114
REMARK   50  A    between atoms: _114  and  _115
REMARK   51  A    between atoms: _117  and  _119
REMARK   52  A    between atoms: _119  and  _120
REMARK   53  A    between atoms: _122  and  _124
REMARK   54  A    between atoms: _124  and  _125
REMARK   55  A    between atoms: _124  and  _127
REMARK   56  A    between atoms: _127  and  _128
REMARK   57  A    between atoms: _131  and  _133
REMARK   58  A    between atoms: _133  and  _134
REMARK   59  A    between atoms: _136  and  _138
REMARK   60  A    between atoms: _138  and  _139
REMARK   61  A    between atoms: _141  and  _143
REMARK   62  A    between atoms: _143  and  _144
REMARK   63  A    between atoms: _143  and  _146
REMARK   64  A    between atoms: _146  and  _147
REMARK   65  A    between atoms: _150  and  _152
REMARK   66  A    between atoms: _152  and  _153
REMARK   67  A    between atoms: _152  and  _155
REMARK   68  A    between atoms: _155  and  _156
REMARK   69  A    between atoms: _159  and  _161
REMARK   70  A    between atoms: _161  and  _162
REMARK   71  A    between atoms: _161  and  _164
REMARK   72  A    between atoms: _164  and  _165
REMARK   73  A    between atoms: _169  and  _170
REMARK   74  A    between atoms: _175  and  _177
REMARK   75  A    between atoms: _177  and  _178
REMARK   76  A    between atoms: _177  and  _180
REMARK   77  A    between atoms: _180  and  _181
REMARK   78  A    between atoms: _184  and  _186
REMARK   79  A    between atoms: _186  and  _187
REMARK   80  A    between atoms: _186  and  _189
REMARK   81  A    between atoms: _189  and  _190
REMARK   82  A    between atoms: _195  and  _197
REMARK   83  A    between atoms: _197  and  _198
REMARK   84  A    between atoms: _197  and  _200
REMARK   85  A    between atoms: _200  and  _201
REMARK   86  A    between atoms: _204  and  _206
REMARK   87  A    between atoms: _206  and  _207
REMARK   88  A    between atoms: _206  and  _209
REMARK   89  A    between atoms: _209  and  _210
REMARK   90  A    between atoms: _213  and  _215
REMARK   91  A    between atoms: _215  and  _216
REMARK   92  A    between atoms: _218  and  _220
REMARK   93  A    between atoms: _220  and  _221
REMARK   94  A    between atoms: _220  and  _223
REMARK   95  A    between atoms: _223  and  _224
REMARK   96  A    between atoms: _224  and  _225
REMARK   97  A    between atoms: _225  and  _226
REMARK   98  A    between atoms: _235  and  _237
REMARK   99  A    between atoms: _237  and  _238
REMARK  100  A    between atoms: _237  and  _240
REMARK  101  A    between atoms: _240  and  _241
REMARK  102  A    between atoms: _246  and  _248
REMARK  103  A    between atoms: _248  and  _249
REMARK  104  A    between atoms: _248  and  _251
REMARK  105  A    between atoms: _251  and  _252
REMARK  106  A    between atoms: _252  and  _253
REMARK  107  A    between atoms: _253  and  _254
REMARK  108  A    between atoms: _263  and  _265
REMARK  109  A    between atoms: _265  and  _266
REMARK  110  A    between atoms: _265  and  _268
REMARK  111  A    between atoms: _268  and  _269
REMARK  112  A    between atoms: _272  and  _274
REMARK  113  A    between atoms: _274  and  _275
REMARK  114  A    between atoms: _274  and  _277
REMARK  115  A    between atoms: _277  and  _278
REMARK  116  A    between atoms: _281  and  _283
REMARK  117  A    between atoms: _283  and  _284
REMARK  118  A    between atoms: _283  and  _286
REMARK  119  A    between atoms: _286  and  _287
REMARK  120  A    between atoms: _290  and  _292
REMARK  121  A    between atoms: _292  and  _293
REMARK  122  A    between atoms: _292  and  _295
REMARK  123  A    between atoms: _295  and  _296
REMARK  124  A    between atoms: _299  and  _301
REMARK  125  A    between atoms: _301  and  _302
REMARK  126  A    between atoms: _304  and  _306
REMARK  127  A    between atoms: _306  and  _307
REMARK  128  A    between atoms: _310  and  _312
REMARK  129  A    between atoms: _312  and  _313
REMARK  130  A    between atoms: _312  and  _315
REMARK  131  A    between atoms: _315  and  _316
REMARK  132  A    between atoms: _319  and  _321
REMARK  133  A    between atoms: _321  and  _322
REMARK  134  A    between atoms: _321  and  _324
REMARK  135  A    between atoms: _324  and  _325
REMARK  136  A    between atoms: _328  and  _330
REMARK  137  A    between atoms: _330  and  _331
REMARK  138  A    between atoms: _330  and  _333
REMARK  139  A    between atoms: _333  and  _334
REMARK  140  A    between atoms: _336  and  _338
REMARK  141  A    between atoms: _338  and  _339
REMARK  142  A    between atoms: _338  and  _341
REMARK  143  A    between atoms: _341  and  _342
REMARK  144  A    between atoms: _345  and  _347
REMARK  145  A    between atoms: _347  and  _348
REMARK  146  A    between atoms: _347  and  _350
REMARK  147  A    between atoms: _350  and  _351
REMARK  148  A    between atoms: _351  and  _352
REMARK  149  A    between atoms: _352  and  _353
REMARK  150  A    between atoms: _353  and  _354
REMARK  151  A    between atoms: _358  and  _360
REMARK  152  A    between atoms: _360  and  _361
REMARK  153  A    between atoms: _360  and  _363
REMARK  154  A    between atoms: _363  and  _364
REMARK  155  A    between atoms: _364  and  _365
REMARK  156  A    between atoms: _367  and  _369
REMARK  157  A    between atoms: _369  and  _370
REMARK  158  A    between atoms: _369  and  _372
REMARK  159  A    between atoms: _375  and  _377
REMARK  160  A    between atoms: _377  and  _378
REMARK  161  A    between atoms: _380  and  _382
REMARK  162  A    between atoms: _382  and  _383
REMARK  163  A    between atoms: _385  and  _387
REMARK  164  A    between atoms: _387  and  _388
REMARK  165  A    between atoms: _387  and  _390
REMARK  166  A    between atoms: _390  and  _391
REMARK  167  A    between atoms: _394  and  _396
REMARK  168  A    between atoms: _396  and  _397
REMARK  169  A    between atoms: _399  and  _401
REMARK  170  A    between atoms: _401  and  _402
REMARK  171  A    between atoms: _404  and  _406
REMARK  172  A    between atoms: _406  and  _407
REMARK  173  A    between atoms: _406  and  _409
REMARK  174  A    between atoms: _409  and  _410
REMARK  175  A    between atoms: _416  and  _418
REMARK  176  A    between atoms: _418  and  _419
REMARK  177  A    between atoms: _418  and  _421
REMARK  178  A    between atoms: _421  and  _422
REMARK  179  A    between atoms: _425  and  _427
REMARK  180  A    between atoms: _427  and  _428
REMARK  181  A    between atoms: _427  and  _430
REMARK  182  A    between atoms: _433  and  _435
REMARK  183  A    between atoms: _435  and  _436
REMARK  184  A    between atoms: _435  and  _438
REMARK  185  A    between atoms: _438  and  _439
REMARK  186  A    between atoms: _442  and  _444
REMARK  187  A    between atoms: _444  and  _445
REMARK  188  A    between atoms: _444  and  _447
REMARK  189  A    between atoms: _447  and  _448
REMARK  190  A    between atoms: _452  and  _453
REMARK  191  A    between atoms: _458  and  _460
REMARK  192  A    between atoms: _460  and  _461
REMARK  193  A    between atoms: _460  and  _463
REMARK  194  A    between atoms: _463  and  _464
REMARK  195  A    between atoms: _467  and  _469
REMARK  196  A    between atoms: _469  and  _470
REMARK  197  A    between atoms: _469  and  _472
REMARK  198  A    between atoms: _472  and  _473
REMARK  199  A    between atoms: _478  and  _480
REMARK  200  A    between atoms: _480  and  _481
REMARK  201  A    between atoms: _480  and  _483
REMARK  202  A    between atoms: _483  and  _484
REMARK  203  A    between atoms: _487  and  _489
REMARK  204  A    between atoms: _489  and  _490
REMARK  205  A    between atoms: _489  and  _492
REMARK  206  A    between atoms: _492  and  _493
REMARK  207  A    between atoms: _496  and  _498
REMARK  208  A    between atoms: _498  and  _499
REMARK  209  A    between atoms: _501  and  _503
REMARK  210  A    between atoms: _503  and  _504
REMARK  211  A    between atoms: _503  and  _506
REMARK  212  A    between atoms: _506  and  _507
REMARK  213  A    between atoms: _507  and  _508
REMARK  214  A    between atoms: _508  and  _509
REMARK                            x       y       z     vdW  Elec       q    Type
REMARK                         _______ _______ _______ _____ _____    ______ ____
ROOT
ATOM      1  O   HOH     1     -13.764  13.473  40.123  0.00  0.00    +0.000 OA
ENDROOT
TORSDOF 0
REMARK  Name = ../refined-set-2016/1bdq/1bdq_pocket.pdb
REMARK  214 active torsions:
REMARK  status: ('A' for Active; 'I' for Inactive)
REMARK    1  A    between atoms: _1  and  _3
REMARK    2  A    between atoms: _3  and  _4
REMARK    3  A    between atoms: _3  and  _6
REMARK    4  A    between atoms: _6  and  _7
REMARK    5  A    between atoms: _7  and  _8
REMARK    6  A    between atoms: _8  and  _9
REMARK    7  A    between atoms: _18  and  _20
REMARK    8  A    between atoms: _20  and  _21
REMARK    9  A    between atoms: _20  and  _23
REMARK   10  A    between atoms: _23  and  _24
REMARK   11  A    between atoms: _27  and  _29
REMARK   12  A    between atoms: _29  and  _30
REMARK   13  A    between atoms: _29  and  _32
REMARK   14  A    between atoms: _32  and  _33
REMARK   15  A    between atoms: _36  and  _38
REMARK   16  A    between atoms: _38  and  _39
REMARK   17  A    between atoms: _38  and  _41
REMARK   18  A    between atoms: _41  and  _42
REMARK   19  A    between atoms: _45  and  _47
REMARK   20  A    between atoms: _47  and  _48
REMARK   21  A    between atoms: _50  and  _52
REMARK   22  A    between atoms: _52  and  _53
REMARK   23  A    between atoms: _56  and  _58
REMARK   24  A    between atoms: _58  and  _59
REMARK   25  A    between atoms: _58  and  _61
REMARK   26  A    between atoms: _61  and  _62
REMARK   27  A    between atoms: _65  and  _67
REMARK   28  A    between atoms: _67  and  _68
REMARK   29  A    between atoms: _67  and  _70
REMARK   30  A    between atoms: _70  and  _71
REMARK   31  A    between atoms: _74  and  _76
REMARK   32  A    between atoms: _76  and  _77
REMARK   33  A    between atoms: _76  and  _79
REMARK   34  A    between atoms: _79  and  _80
REMARK   35  A    between atoms: _82  and  _84
REMARK   36  A    between atoms: _84  and  _85
REMARK   37  A    between atoms: _84  and  _87
REMARK   38  A    between atoms: _87  and  _88
REMARK   39  A    between atoms: _91  and  _93
REMARK   40  A    between atoms: _93  and  _94
REMARK   41  A    between atoms: _93  and  _96
REMARK   42  A    between atoms: _96  and  _97
REMARK   43  A    between atoms: _97  and  _98
REMARK   44  A    between atoms: _98  and  _99
REMARK   45  A    between atoms: _99  and  _100
REMARK   46  A    between atoms: _104  and  _106
REMARK   47  A    between atoms: _106  and  _107
REMARK   48  A    between atoms: _106  and  _109
REMARK   49  A    between atoms: _112  and  _114
REMARK   50  A    between atoms: _114  and  _115
REMARK   51  A    between atoms: _117  and  _119
REMARK   52  A    between atoms: _119  and  _120
REMARK   53  A    between atoms: _122  and  _124
REMARK   54  A    between atoms: _124  and  _125
REMARK   55  A    between atoms: _124  and  _127
REMARK   56  A    between atoms: _127  and  _128
REMARK   57  A    between atoms: _131  and  _133
REMARK   58  A    between atoms: _133  and  _134
REMARK   59  A    between atoms: _136  and  _138
REMARK   60  A    between atoms: _138  and  _139
REMARK   61  A    between atoms: _141  and  _143
REMARK   62  A    between atoms: _143  and  _144
REMARK   63  A    between atoms: _143  and  _146
REMARK   64  A    between atoms: _146  and  _147
REMARK   65  A    between atoms: _150  and  _152
REMARK   66  A    between atoms: _152  and  _153
REMARK   67  A    between atoms: _152  and  _155
REMARK   68  A    between atoms: _155  and  _156
REMARK   69  A    between atoms: _159  and  _161
REMARK   70  A    between atoms: _161  and  _162
REMARK   71  A    between atoms: _161  and  _164
REMARK   72  A    between atoms: _164  and  _165
REMARK   73  A    between atoms: _169  and  _170
REMARK   74  A    between atoms: _175  and  _177
REMARK   75  A    between atoms: _177  and  _178
REMARK   76  A    between atoms: _177  and  _180
REMARK   77  A    between atoms: _180  and  _181
REMARK   78  A    between atoms: _184  and  _186
REMARK   79  A    between atoms: _186  and  _187
REMARK   80  A    between atoms: _186  and  _189
REMARK   81  A    between atoms: _189  and  _190
REMARK   82  A    between atoms: _195  and  _197
REMARK   83  A    between atoms: _197  and  _198
REMARK   84  A    between atoms: _197  and  _200
REMARK   85  A    between atoms: _200  and  _201
REMARK   86  A    between atoms: _204  and  _206
REMARK   87  A    between atoms: _206  and  _207
REMARK   88  A    between atoms: _206  and  _209
REMARK   89  A    between atoms: _209  and  _210
REMARK   90  A    between atoms: _213  and  _215
REMARK   91  A    between atoms: _215  and  _216
REMARK   92  A    between atoms: _218  and  _220
REMARK   93  A    between atoms: _220  and  _221
REMARK   94  A    between atoms: _220  and  _223
REMARK   95  A    between atoms: _223  and  _224
REMARK   96  A    between atoms: _224  and  _225
REMARK   97  A    between atoms: _225  and  _226
REMARK   98  A    between atoms: _235  and  _237
REMARK   99  A    between atoms: _237  and  _238
REMARK  100  A    between atoms: _237  and  _240
REMARK  101  A    between atoms: _240  and  _241
REMARK  102  A    between atoms: _246  and  _248
REMARK  103  A    between atoms: _248  and  _249
REMARK  104  A    between atoms: _248  and  _251
REMARK  105  A    between atoms: _251  and  _252
REMARK  106  A    between atoms: _252  and  _253
REMARK  107  A    between atoms: _253  and  _254
REMARK  108  A    between atoms: _263  and  _265
REMARK  109  A    between atoms: _265  and  _266
REMARK  110  A    between atoms: _265  and  _268
REMARK  111  A    between atoms: _268  and  _269
REMARK  112  A    between atoms: _272  and  _274
REMARK  113  A    between atoms: _274  and  _275
REMARK  114  A    between atoms: _274  and  _277
REMARK  115  A    between atoms: _277  and  _278
REMARK  116  A    between atoms: _281  and  _283
REMARK  117  A    between atoms: _283  and  _284
REMARK  118  A    between atoms: _283  and  _286
REMARK  119  A    between atoms: _286  and  _287
REMARK  120  A    between atoms: _290  and  _292
REMARK  121  A    between atoms: _292  and  _293
REMARK  122  A    between atoms: _292  and  _295
REMARK  123  A    between atoms: _295  and  _296
REMARK  124  A    between atoms: _299  and  _301
REMARK  125  A    between atoms: _301  and  _302
REMARK  126  A    between atoms: _304  and  _306
REMARK  127  A    between atoms: _306  and  _307
REMARK  128  A    between atoms: _310  and  _312
REMARK  129  A    between atoms: _312  and  _313
REMARK  130  A    between atoms: _312  and  _315
REMARK  131  A    between atoms: _315  and  _316
REMARK  132  A    between atoms: _319  and  _321
REMARK  133  A    between atoms: _321  and  _322
REMARK  134  A    between atoms: _321  and  _324
REMARK  135  A    between atoms: _324  and  _325
REMARK  136  A    between atoms: _328  and  _330
REMARK  137  A    between atoms: _330  and  _331
REMARK  138  A    between atoms: _330  and  _333
REMARK  139  A    between atoms: _333  and  _334
REMARK  140  A    between atoms: _336  and  _338
REMARK  141  A    between atoms: _338  and  _339
REMARK  142  A    between atoms: _338  and  _341
REMARK  143  A    between atoms: _341  and  _342
REMARK  144  A    between atoms: _345  and  _347
REMARK  145  A    between atoms: _347  and  _348
REMARK  146  A    between atoms: _347  and  _350
REMARK  147  A    between atoms: _350  and  _351
REMARK  148  A    between atoms: _351  and  _352
REMARK  149  A    between atoms: _352  and  _353
REMARK  150  A    between atoms: _353  and  _354
REMARK  151  A    between atoms: _358  and  _360
REMARK  152  A    between atoms: _360  and  _361
REMARK  153  A    between atoms: _360  and  _363
REMARK  154  A    between atoms: _363  and  _364
REMARK  155  A    between atoms: _364  and  _365
REMARK  156  A    between atoms: _367  and  _369
REMARK  157  A    between atoms: _369  and  _370
REMARK  158  A    between atoms: _369  and  _372
REMARK  159  A    between atoms: _375  and  _377
REMARK  160  A    between atoms: _377  and  _378
REMARK  161  A    between atoms: _380  and  _382
REMARK  162  A    between atoms: _382  and  _383
REMARK  163  A    between atoms: _385  and  _387
REMARK  164  A    between atoms: _387  and  _388
REMARK  165  A    between atoms: _387  and  _390
REMARK  166  A    between atoms: _390  and  _391
REMARK  167  A    between atoms: _394  and  _396
REMARK  168  A    between atoms: _396  and  _397
REMARK  169  A    between atoms: _399  and  _401
REMARK  170  A    between atoms: _401  and  _402
REMARK  171  A    between atoms: _404  and  _406
REMARK  172  A    between atoms: _406  and  _407
REMARK  173  A    between atoms: _406  and  _409
REMARK  174  A    between atoms: _409  and  _410
REMARK  175  A    between atoms: _416  and  _418
REMARK  176  A    between atoms: _418  and  _419
REMARK  177  A    between atoms: _418  and  _421
REMARK  178  A    between atoms: _421  and  _422
REMARK  179  A    between atoms: _425  and  _427
REMARK  180  A    between atoms: _427  and  _428
REMARK  181  A    between atoms: _427  and  _430
REMARK  182  A    between atoms: _433  and  _435
REMARK  183  A    between atoms: _435  and  _436
REMARK  184  A    between atoms: _435  and  _438
REMARK  185  A    between atoms: _438  and  _439
REMARK  186  A    between atoms: _442  and  _444
REMARK  187  A    between atoms: _444  and  _445
REMARK  188  A    between atoms: _444  and  _447
REMARK  189  A    between atoms: _447  and  _448
REMARK  190  A    between atoms: _452  and  _453
REMARK  191  A    between atoms: _458  and  _460
REMARK  192  A    between atoms: _460  and  _461
REMARK  193  A    between atoms: _460  and  _463
REMARK  194  A    between atoms: _463  and  _464
REMARK  195  A    between atoms: _467  and  _469
REMARK  196  A    between atoms: _469  and  _470
REMARK  197  A    between atoms: _469  and  _472
REMARK  198  A    between atoms: _472  and  _473
REMARK  199  A    between atoms: _478  and  _480
REMARK  200  A    between atoms: _480  and  _481
REMARK  201  A    between atoms: _480  and  _483
REMARK  202  A    between atoms: _483  and  _484
REMARK  203  A    between atoms: _487  and  _489
REMARK  204  A    between atoms: _489  and  _490
REMARK  205  A    between atoms: _489  and  _492
REMARK  206  A    between atoms: _492  and  _493
REMARK  207  A    between atoms: _496  and  _498
REMARK  208  A    between atoms: _498  and  _499
REMARK  209  A    between atoms: _501  and  _503
REMARK  210  A    between atoms: _503  and  _504
REMARK  211  A    between atoms: _503  and  _506
REMARK  212  A    between atoms: _506  and  _507
REMARK  213  A    between atoms: _507  and  _508
REMARK  214  A    between atoms: _508  and  _509
REMARK                            x       y       z     vdW  Elec       q    Type
REMARK                         _______ _______ _______ _____ _____    ______ ____
ROOT
ATOM      1  O   HOH     1     -14.459  15.997  40.873  0.00  0.00    +0.000 OA
ENDROOT
TORSDOF 0
REMARK  Name = ../refined-set-2016/1bdq/1bdq_pocket.pdb
REMARK  214 active torsions:
REMARK  status: ('A' for Active; 'I' for Inactive)
REMARK    1  A    between atoms: _1  and  _3
REMARK    2  A    between atoms: _3  and  _4
REMARK    3  A    between atoms: _3  and  _6
REMARK    4  A    between atoms: _6  and  _7
REMARK    5  A    between atoms: _7  and  _8
REMARK    6  A    between atoms: _8  and  _9
REMARK    7  A    between atoms: _18  and  _20
REMARK    8  A    between atoms: _20  and  _21
REMARK    9  A    between atoms: _20  and  _23
REMARK   10  A    between atoms: _23  and  _24
REMARK   11  A    between atoms: _27  and  _29
REMARK   12  A    between atoms: _29  and  _30
REMARK   13  A    between atoms: _29  and  _32
REMARK   14  A    between atoms: _32  and  _33
REMARK   15  A    between atoms: _36  and  _38
REMARK   16  A    between atoms: _38  and  _39
REMARK   17  A    between atoms: _38  and  _41
REMARK   18  A    between atoms: _41  and  _42
REMARK   19  A    between atoms: _45  and  _47
REMARK   20  A    between atoms: _47  and  _48
REMARK   21  A    between atoms: _50  and  _52
REMARK   22  A    between atoms: _52  and  _53
REMARK   23  A    between atoms: _56  and  _58
REMARK   24  A    between atoms: _58  and  _59
REMARK   25  A    between atoms: _58  and  _61
REMARK   26  A    between atoms: _61  and  _62
REMARK   27  A    between atoms: _65  and  _67
REMARK   28  A    between atoms: _67  and  _68
REMARK   29  A    between atoms: _67  and  _70
REMARK   30  A    between atoms: _70  and  _71
REMARK   31  A    between atoms: _74  and  _76
REMARK   32  A    between atoms: _76  and  _77
REMARK   33  A    between atoms: _76  and  _79
REMARK   34  A    between atoms: _79  and  _80
REMARK   35  A    between atoms: _82  and  _84
REMARK   36  A    between atoms: _84  and  _85
REMARK   37  A    between atoms: _84  and  _87
REMARK   38  A    between atoms: _87  and  _88
REMARK   39  A    between atoms: _91  and  _93
REMARK   40  A    between atoms: _93  and  _94
REMARK   41  A    between atoms: _93  and  _96
REMARK   42  A    between atoms: _96  and  _97
REMARK   43  A    between atoms: _97  and  _98
REMARK   44  A    between atoms: _98  and  _99
REMARK   45  A    between atoms: _99  and  _100
REMARK   46  A    between atoms: _104  and  _106
REMARK   47  A    between atoms: _106  and  _107
REMARK   48  A    between atoms: _106  and  _109
REMARK   49  A    between atoms: _112  and  _114
REMARK   50  A    between atoms: _114  and  _115
REMARK   51  A    between atoms: _117  and  _119
REMARK   52  A    between atoms: _119  and  _120
REMARK   53  A    between atoms: _122  and  _124
REMARK   54  A    between atoms: _124  and  _125
REMARK   55  A    between atoms: _124  and  _127
REMARK   56  A    between atoms: _127  and  _128
REMARK   57  A    between atoms: _131  and  _133
REMARK   58  A    between atoms: _133  and  _134
REMARK   59  A    between atoms: _136  and  _138
REMARK   60  A    between atoms: _138  and  _139
REMARK   61  A    between atoms: _141  and  _143
REMARK   62  A    between atoms: _143  and  _144
REMARK   63  A    between atoms: _143  and  _146
REMARK   64  A    between atoms: _146  and  _147
REMARK   65  A    between atoms: _150  and  _152
REMARK   66  A    between atoms: _152  and  _153
REMARK   67  A    between atoms: _152  and  _155
REMARK   68  A    between atoms: _155  and  _156
REMARK   69  A    between atoms: _159  and  _161
REMARK   70  A    between atoms: _161  and  _162
REMARK   71  A    between atoms: _161  and  _164
REMARK   72  A    between atoms: _164  and  _165
REMARK   73  A    between atoms: _169  and  _170
REMARK   74  A    between atoms: _175  and  _177
REMARK   75  A    between atoms: _177  and  _178
REMARK   76  A    between atoms: _177  and  _180
REMARK   77  A    between atoms: _180  and  _181
REMARK   78  A    between atoms: _184  and  _186
REMARK   79  A    between atoms: _186  and  _187
REMARK   80  A    between atoms: _186  and  _189
REMARK   81  A    between atoms: _189  and  _190
REMARK   82  A    between atoms: _195  and  _197
REMARK   83  A    between atoms: _197  and  _198
REMARK   84  A    between atoms: _197  and  _200
REMARK   85  A    between atoms: _200  and  _201
REMARK   86  A    between atoms: _204  and  _206
REMARK   87  A    between atoms: _206  and  _207
REMARK   88  A    between atoms: _206  and  _209
REMARK   89  A    between atoms: _209  and  _210
REMARK   90  A    between atoms: _213  and  _215
REMARK   91  A    between atoms: _215  and  _216
REMARK   92  A    between atoms: _218  and  _220
REMARK   93  A    between atoms: _220  and  _221
REMARK   94  A    between atoms: _220  and  _223
REMARK   95  A    between atoms: _223  and  _224
REMARK   96  A    between atoms: _224  and  _225
REMARK   97  A    between atoms: _225  and  _226
REMARK   98  A    between atoms: _235  and  _237
REMARK   99  A    between atoms: _237  and  _238
REMARK  100  A    between atoms: _237  and  _240
REMARK  101  A    between atoms: _240  and  _241
REMARK  102  A    between atoms: _246  and  _248
REMARK  103  A    between atoms: _248  and  _249
REMARK  104  A    between atoms: _248  and  _251
REMARK  105  A    between atoms: _251  and  _252
REMARK  106  A    between atoms: _252  and  _253
REMARK  107  A    between atoms: _253  and  _254
REMARK  108  A    between atoms: _263  and  _265
REMARK  109  A    between atoms: _265  and  _266
REMARK  110  A    between atoms: _265  and  _268
REMARK  111  A    between atoms: _268  and  _269
REMARK  112  A    between atoms: _272  and  _274
REMARK  113  A    between atoms: _274  and  _275
REMARK  114  A    between atoms: _274  and  _277
REMARK  115  A    between atoms: _277  and  _278
REMARK  116  A    between atoms: _281  and  _283
REMARK  117  A    between atoms: _283  and  _284
REMARK  118  A    between atoms: _283  and  _286
REMARK  119  A    between atoms: _286  and  _287
REMARK  120  A    between atoms: _290  and  _292
REMARK  121  A    between atoms: _292  and  _293
REMARK  122  A    between atoms: _292  and  _295
REMARK  123  A    between atoms: _295  and  _296
REMARK  124  A    between atoms: _299  and  _301
REMARK  125  A    between atoms: _301  and  _302
REMARK  126  A    between atoms: _304  and  _306
REMARK  127  A    between atoms: _306  and  _307
REMARK  128  A    between atoms: _310  and  _312
REMARK  129  A    between atoms: _312  and  _313
REMARK  130  A    between atoms: _312  and  _315
REMARK  131  A    between atoms: _315  and  _316
REMARK  132  A    between atoms: _319  and  _321
REMARK  133  A    between atoms: _321  and  _322
REMARK  134  A    between atoms: _321  and  _324
REMARK  135  A    between atoms: _324  and  _325
REMARK  136  A    between atoms: _328  and  _330
REMARK  137  A    between atoms: _330  and  _331
REMARK  138  A    between atoms: _330  and  _333
REMARK  139  A    between atoms: _333  and  _334
REMARK  140  A    between atoms: _336  and  _338
REMARK  141  A    between atoms: _338  and  _339
REMARK  142  A    between atoms: _338  and  _341
REMARK  143  A    between atoms: _341  and  _342
REMARK  144  A    between atoms: _345  and  _347
REMARK  145  A    between atoms: _347  and  _348
REMARK  146  A    between atoms: _347  and  _350
REMARK  147  A    between atoms: _350  and  _351
REMARK  148  A    between atoms: _351  and  _352
REMARK  149  A    between atoms: _352  and  _353
REMARK  150  A    between atoms: _353  and  _354
REMARK  151  A    between atoms: _358  and  _360
REMARK  152  A    between atoms: _360  and  _361
REMARK  153  A    between atoms: _360  and  _363
REMARK  154  A    between atoms: _363  and  _364
REMARK  155  A    between atoms: _364  and  _365
REMARK  156  A    between atoms: _367  and  _369
REMARK  157  A    between atoms: _369  and  _370
REMARK  158  A    between atoms: _369  and  _372
REMARK  159  A    between atoms: _375  and  _377
REMARK  160  A    between atoms: _377  and  _378
REMARK  161  A    between atoms: _380  and  _382
REMARK  162  A    between atoms: _382  and  _383
REMARK  163  A    between atoms: _385  and  _387
REMARK  164  A    between atoms: _387  and  _388
REMARK  165  A    between atoms: _387  and  _390
REMARK  166  A    between atoms: _390  and  _391
REMARK  167  A    between atoms: _394  and  _396
REMARK  168  A    between atoms: _396  and  _397
REMARK  169  A    between atoms: _399  and  _401
REMARK  170  A    between atoms: _401  and  _402
REMARK  171  A    between atoms: _404  and  _406
REMARK  172  A    between atoms: _406  and  _407
REMARK  173  A    between atoms: _406  and  _409
REMARK  174  A    between atoms: _409  and  _410
REMARK  175  A    between atoms: _416  and  _418
REMARK  176  A    between atoms: _418  and  _419
REMARK  177  A    between atoms: _418  and  _421
REMARK  178  A    between atoms: _421  and  _422
REMARK  179  A    between atoms: _425  and  _427
REMARK  180  A    between atoms: _427  and  _428
REMARK  181  A    between atoms: _427  and  _430
REMARK  182  A    between atoms: _433  and  _435
REMARK  183  A    between atoms: _435  and  _436
REMARK  184  A    between atoms: _435  and  _438
REMARK  185  A    between atoms: _438  and  _439
REMARK  186  A    between atoms: _442  and  _444
REMARK  187  A    between atoms: _444  and  _445
REMARK  188  A    between atoms: _444  and  _447
REMARK  189  A    between atoms: _447  and  _448
REMARK  190  A    between atoms: _452  and  _453
REMARK  191  A    between atoms: _458  and  _460
REMARK  192  A    between atoms: _460  and  _461
REMARK  193  A    between atoms: _460  and  _463
REMARK  194  A    between atoms: _463  and  _464
REMARK  195  A    between atoms: _467  and  _469
REMARK  196  A    between atoms: _469  and  _470
REMARK  197  A    between atoms: _469  and  _472
REMARK  198  A    between atoms: _472  and  _473
REMARK  199  A    between atoms: _478  and  _480
REMARK  200  A    between atoms: _480  and  _481
REMARK  201  A    between atoms: _480  and  _483
REMARK  202  A    between atoms: _483  and  _484
REMARK  203  A    between atoms: _487  and  _489
REMARK  204  A    between atoms: _489  and  _490
REMARK  205  A    between atoms: _489  and  _492
REMARK  206  A    between atoms: _492  and  _493
REMARK  207  A    between atoms: _496  and  _498
REMARK  208  A    between atoms: _498  and  _499
REMARK  209  A    between atoms: _501  and  _503
REMARK  210  A    between atoms: _503  and  _504
REMARK  211  A    between atoms: _503  and  _506
REMARK  212  A    between atoms: _506  and  _507
REMARK  213  A    between atoms: _507  and  _508
REMARK  214  A    between atoms: _508  and  _509
REMARK                            x       y       z     vdW  Elec       q    Type
REMARK                         _______ _______ _______ _____ _____    ______ ____
ROOT
ATOM      1  O   HOH     1      -8.205  23.812  22.864  0.00  0.00    +0.000 OA
ENDROOT
TORSDOF 0
REMARK  Name = ../refined-set-2016/1bdq/1bdq_pocket.pdb
REMARK  214 active torsions:
REMARK  status: ('A' for Active; 'I' for Inactive)
REMARK    1  A    between atoms: _1  and  _3
REMARK    2  A    between atoms: _3  and  _4
REMARK    3  A    between atoms: _3  and  _6
REMARK    4  A    between atoms: _6  and  _7
REMARK    5  A    between atoms: _7  and  _8
REMARK    6  A    between atoms: _8  and  _9
REMARK    7  A    between atoms: _18  and  _20
REMARK    8  A    between atoms: _20  and  _21
REMARK    9  A    between atoms: _20  and  _23
REMARK   10  A    between atoms: _23  and  _24
REMARK   11  A    between atoms: _27  and  _29
REMARK   12  A    between atoms: _29  and  _30
REMARK   13  A    between atoms: _29  and  _32
REMARK   14  A    between atoms: _32  and  _33
REMARK   15  A    between atoms: _36  and  _38
REMARK   16  A    between atoms: _38  and  _39
REMARK   17  A    between atoms: _38  and  _41
REMARK   18  A    between atoms: _41  and  _42
REMARK   19  A    between atoms: _45  and  _47
REMARK   20  A    between atoms: _47  and  _48
REMARK   21  A    between atoms: _50  and  _52
REMARK   22  A    between atoms: _52  and  _53
REMARK   23  A    between atoms: _56  and  _58
REMARK   24  A    between atoms: _58  and  _59
REMARK   25  A    between atoms: _58  and  _61
REMARK   26  A    between atoms: _61  and  _62
REMARK   27  A    between atoms: _65  and  _67
REMARK   28  A    between atoms: _67  and  _68
REMARK   29  A    between atoms: _67  and  _70
REMARK   30  A    between atoms: _70  and  _71
REMARK   31  A    between atoms: _74  and  _76
REMARK   32  A    between atoms: _76  and  _77
REMARK   33  A    between atoms: _76  and  _79
REMARK   34  A    between atoms: _79  and  _80
REMARK   35  A    between atoms: _82  and  _84
REMARK   36  A    between atoms: _84  and  _85
REMARK   37  A    between atoms: _84  and  _87
REMARK   38  A    between atoms: _87  and  _88
REMARK   39  A    between atoms: _91  and  _93
REMARK   40  A    between atoms: _93  and  _94
REMARK   41  A    between atoms: _93  and  _96
REMARK   42  A    between atoms: _96  and  _97
REMARK   43  A    between atoms: _97  and  _98
REMARK   44  A    between atoms: _98  and  _99
REMARK   45  A    between atoms: _99  and  _100
REMARK   46  A    between atoms: _104  and  _106
REMARK   47  A    between atoms: _106  and  _107
REMARK   48  A    between atoms: _106  and  _109
REMARK   49  A    between atoms: _112  and  _114
REMARK   50  A    between atoms: _114  and  _115
REMARK   51  A    between atoms: _117  and  _119
REMARK   52  A    between atoms: _119  and  _120
REMARK   53  A    between atoms: _122  and  _124
REMARK   54  A    between atoms: _124  and  _125
REMARK   55  A    between atoms: _124  and  _127
REMARK   56  A    between atoms: _127  and  _128
REMARK   57  A    between atoms: _131  and  _133
REMARK   58  A    between atoms: _133  and  _134
REMARK   59  A    between atoms: _136  and  _138
REMARK   60  A    between atoms: _138  and  _139
REMARK   61  A    between atoms: _141  and  _143
REMARK   62  A    between atoms: _143  and  _144
REMARK   63  A    between atoms: _143  and  _146
REMARK   64  A    between atoms: _146  and  _147
REMARK   65  A    between atoms: _150  and  _152
REMARK   66  A    between atoms: _152  and  _153
REMARK   67  A    between atoms: _152  and  _155
REMARK   68  A    between atoms: _155  and  _156
REMARK   69  A    between atoms: _159  and  _161
REMARK   70  A    between atoms: _161  and  _162
REMARK   71  A    between atoms: _161  and  _164
REMARK   72  A    between atoms: _164  and  _165
REMARK   73  A    between atoms: _169  and  _170
REMARK   74  A    between atoms: _175  and  _177
REMARK   75  A    between atoms: _177  and  _178
REMARK   76  A    between atoms: _177  and  _180
REMARK   77  A    between atoms: _180  and  _181
REMARK   78  A    between atoms: _184  and  _186
REMARK   79  A    between atoms: _186  and  _187
REMARK   80  A    between atoms: _186  and  _189
REMARK   81  A    between atoms: _189  and  _190
REMARK   82  A    between atoms: _195  and  _197
REMARK   83  A    between atoms: _197  and  _198
REMARK   84  A    between atoms: _197  and  _200
REMARK   85  A    between atoms: _200  and  _201
REMARK   86  A    between atoms: _204  and  _206
REMARK   87  A    between atoms: _206  and  _207
REMARK   88  A    between atoms: _206  and  _209
REMARK   89  A    between atoms: _209  and  _210
REMARK   90  A    between atoms: _213  and  _215
REMARK   91  A    between atoms: _215  and  _216
REMARK   92  A    between atoms: _218  and  _220
REMARK   93  A    between atoms: _220  and  _221
REMARK   94  A    between atoms: _220  and  _223
REMARK   95  A    between atoms: _223  and  _224
REMARK   96  A    between atoms: _224  and  _225
REMARK   97  A    between atoms: _225  and  _226
REMARK   98  A    between atoms: _235  and  _237
REMARK   99  A    between atoms: _237  and  _238
REMARK  100  A    between atoms: _237  and  _240
REMARK  101  A    between atoms: _240  and  _241
REMARK  102  A    between atoms: _246  and  _248
REMARK  103  A    between atoms: _248  and  _249
REMARK  104  A    between atoms: _248  and  _251
REMARK  105  A    between atoms: _251  and  _252
REMARK  106  A    between atoms: _252  and  _253
REMARK  107  A    between atoms: _253  and  _254
REMARK  108  A    between atoms: _263  and  _265
REMARK  109  A    between atoms: _265  and  _266
REMARK  110  A    between atoms: _265  and  _268
REMARK  111  A    between atoms: _268  and  _269
REMARK  112  A    between atoms: _272  and  _274
REMARK  113  A    between atoms: _274  and  _275
REMARK  114  A    between atoms: _274  and  _277
REMARK  115  A    between atoms: _277  and  _278
REMARK  116  A    between atoms: _281  and  _283
REMARK  117  A    between atoms: _283  and  _284
REMARK  118  A    between atoms: _283  and  _286
REMARK  119  A    between atoms: _286  and  _287
REMARK  120  A    between atoms: _290  and  _292
REMARK  121  A    between atoms: _292  and  _293
REMARK  122  A    between atoms: _292  and  _295
REMARK  123  A    between atoms: _295  and  _296
REMARK  124  A    between atoms: _299  and  _301
REMARK  125  A    between atoms: _301  and  _302
REMARK  126  A    between atoms: _304  and  _306
REMARK  127  A    between atoms: _306  and  _307
REMARK  128  A    between atoms: _310  and  _312
REMARK  129  A    between atoms: _312  and  _313
REMARK  130  A    between atoms: _312  and  _315
REMARK  131  A    between atoms: _315  and  _316
REMARK  132  A    between atoms: _319  and  _321
REMARK  133  A    between atoms: _321  and  _322
REMARK  134  A    between atoms: _321  and  _324
REMARK  135  A    between atoms: _324  and  _325
REMARK  136  A    between atoms: _328  and  _330
REMARK  137  A    between atoms: _330  and  _331
REMARK  138  A    between atoms: _330  and  _333
REMARK  139  A    between atoms: _333  and  _334
REMARK  140  A    between atoms: _336  and  _338
REMARK  141  A    between atoms: _338  and  _339
REMARK  142  A    between atoms: _338  and  _341
REMARK  143  A    between atoms: _341  and  _342
REMARK  144  A    between atoms: _345  and  _347
REMARK  145  A    between atoms: _347  and  _348
REMARK  146  A    between atoms: _347  and  _350
REMARK  147  A    between atoms: _350  and  _351
REMARK  148  A    between atoms: _351  and  _352
REMARK  149  A    between atoms: _352  and  _353
REMARK  150  A    between atoms: _353  and  _354
REMARK  151  A    between atoms: _358  and  _360
REMARK  152  A    between atoms: _360  and  _361
REMARK  153  A    between atoms: _360  and  _363
REMARK  154  A    between atoms: _363  and  _364
REMARK  155  A    between atoms: _364  and  _365
REMARK  156  A    between atoms: _367  and  _369
REMARK  157  A    between atoms: _369  and  _370
REMARK  158  A    between atoms: _369  and  _372
REMARK  159  A    between atoms: _375  and  _377
REMARK  160  A    between atoms: _377  and  _378
REMARK  161  A    between atoms: _380  and  _382
REMARK  162  A    between atoms: _382  and  _383
REMARK  163  A    between atoms: _385  and  _387
REMARK  164  A    between atoms: _387  and  _388
REMARK  165  A    between atoms: _387  and  _390
REMARK  166  A    between atoms: _390  and  _391
REMARK  167  A    between atoms: _394  and  _396
REMARK  168  A    between atoms: _396  and  _397
REMARK  169  A    between atoms: _399  and  _401
REMARK  170  A    between atoms: _401  and  _402
REMARK  171  A    between atoms: _404  and  _406
REMARK  172  A    between atoms: _406  and  _407
REMARK  173  A    between atoms: _406  and  _409
REMARK  174  A    between atoms: _409  and  _410
REMARK  175  A    between atoms: _416  and  _418
REMARK  176  A    between atoms: _418  and  _419
REMARK  177  A    between atoms: _418  and  _421
REMARK  178  A    between atoms: _421  and  _422
REMARK  179  A    between atoms: _425  and  _427
REMARK  180  A    between atoms: _427  and  _428
REMARK  181  A    between atoms: _427  and  _430
REMARK  182  A    between atoms: _433  and  _435
REMARK  183  A    between atoms: _435  and  _436
REMARK  184  A    between atoms: _435  and  _438
REMARK  185  A    between atoms: _438  and  _439
REMARK  186  A    between atoms: _442  and  _444
REMARK  187  A    between atoms: _444  and  _445
REMARK  188  A    between atoms: _444  and  _447
REMARK  189  A    between atoms: _447  and  _448
REMARK  190  A    between atoms: _452  and  _453
REMARK  191  A    between atoms: _458  and  _460
REMARK  192  A    between atoms: _460  and  _461
REMARK  193  A    between atoms: _460  and  _463
REMARK  194  A    between atoms: _463  and  _464
REMARK  195  A    between atoms: _467  and  _469
REMARK  196  A    between atoms: _469  and  _470
REMARK  197  A    between atoms: _469  and  _472
REMARK  198  A    between atoms: _472  and  _473
REMARK  199  A    between atoms: _478  and  _480
REMARK  200  A    between atoms: _480  and  _481
REMARK  201  A    between atoms: _480  and  _483
REMARK  202  A    between atoms: _483  and  _484
REMARK  203  A    between atoms: _487  and  _489
REMARK  204  A    between atoms: _489  and  _490
REMARK  205  A    between atoms: _489  and  _492
REMARK  206  A    between atoms: _492  and  _493
REMARK  207  A    between atoms: _496  and  _498
REMARK  208  A    between atoms: _498  and  _499
REMARK  209  A    between atoms: _501  and  _503
REMARK  210  A    between atoms: _503  and  _504
REMARK  211  A    between atoms: _503  and  _506
REMARK  212  A    between atoms: _506  and  _507
REMARK  213  A    between atoms: _507  and  _508
REMARK  214  A    between atoms: _508  and  _509
REMARK                            x       y       z     vdW  Elec       q    Type
REMARK                         _______ _______ _______ _____ _____    ______ ____
ROOT
ATOM      1  O   HOH     1      -4.728  18.495  17.747  0.00  0.00    +0.000 OA
ENDROOT
TORSDOF 0
