REMARK  Name = ../refined-set-2016/3o9i/3o9i_pocket.pdb
REMARK  230 active torsions:
REMARK  status: ('A' for Active; 'I' for Inactive)
REMARK    1  A    between atoms: _1  and  _3
REMARK    2  A    between atoms: _3  and  _4
REMARK    3  A    between atoms: _3  and  _6
REMARK    4  A    between atoms: _6  and  _7
REMARK    5  A    between atoms: _7  and  _8
REMARK    6  A    between atoms: _8  and  _9
REMARK    7  A    between atoms: _18  and  _20
REMARK    8  A    between atoms: _20  and  _21
REMARK    9  A    between atoms: _20  and  _23
REMARK   10  A    between atoms: _23  and  _24
REMARK   11  A    between atoms: _27  and  _29
REMARK   12  A    between atoms: _29  and  _30
REMARK   13  A    between atoms: _29  and  _32
REMARK   14  A    between atoms: _32  and  _33
REMARK   15  A    between atoms: _36  and  _38
REMARK   16  A    between atoms: _38  and  _39
REMARK   17  A    between atoms: _38  and  _41
REMARK   18  A    between atoms: _41  and  _42
REMARK   19  A    between atoms: _45  and  _47
REMARK   20  A    between atoms: _47  and  _48
REMARK   21  A    between atoms: _47  and  _50
REMARK   22  A    between atoms: _50  and  _51
REMARK   23  A    between atoms: _54  and  _56
REMARK   24  A    between atoms: _56  and  _57
REMARK   25  A    between atoms: _56  and  _59
REMARK   26  A    between atoms: _59  and  _60
REMARK   27  A    between atoms: _63  and  _65
REMARK   28  A    between atoms: _65  and  _66
REMARK   29  A    between atoms: _68  and  _70
REMARK   30  A    between atoms: _70  and  _71
REMARK   31  A    between atoms: _74  and  _76
REMARK   32  A    between atoms: _76  and  _77
REMARK   33  A    between atoms: _76  and  _79
REMARK   34  A    between atoms: _79  and  _80
REMARK   35  A    between atoms: _83  and  _85
REMARK   36  A    between atoms: _85  and  _86
REMARK   37  A    between atoms: _85  and  _88
REMARK   38  A    between atoms: _88  and  _89
REMARK   39  A    between atoms: _92  and  _94
REMARK   40  A    between atoms: _94  and  _95
REMARK   41  A    between atoms: _94  and  _97
REMARK   42  A    between atoms: _97  and  _98
REMARK   43  A    between atoms: _101  and  _103
REMARK   44  A    between atoms: _103  and  _104
REMARK   45  A    between atoms: _103  and  _106
REMARK   46  A    between atoms: _109  and  _111
REMARK   47  A    between atoms: _111  and  _112
REMARK   48  A    between atoms: _111  and  _114
REMARK   49  A    between atoms: _114  and  _115
REMARK   50  A    between atoms: _118  and  _120
REMARK   51  A    between atoms: _120  and  _121
REMARK   52  A    between atoms: _123  and  _125
REMARK   53  A    between atoms: _125  and  _126
REMARK   54  A    between atoms: _128  and  _130
REMARK   55  A    between atoms: _130  and  _131
REMARK   56  A    between atoms: _130  and  _133
REMARK   57  A    between atoms: _133  and  _134
REMARK   58  A    between atoms: _137  and  _139
REMARK   59  A    between atoms: _139  and  _140
REMARK   60  A    between atoms: _142  and  _144
REMARK   61  A    between atoms: _144  and  _145
REMARK   62  A    between atoms: _147  and  _149
REMARK   63  A    between atoms: _149  and  _150
REMARK   64  A    between atoms: _149  and  _152
REMARK   65  A    between atoms: _152  and  _153
REMARK   66  A    between atoms: _159  and  _161
REMARK   67  A    between atoms: _161  and  _162
REMARK   68  A    between atoms: _161  and  _164
REMARK   69  A    between atoms: _164  and  _165
REMARK   70  A    between atoms: _168  and  _170
REMARK   71  A    between atoms: _170  and  _171
REMARK   72  A    between atoms: _170  and  _173
REMARK   73  A    between atoms: _176  and  _178
REMARK   74  A    between atoms: _178  and  _179
REMARK   75  A    between atoms: _178  and  _181
REMARK   76  A    between atoms: _181  and  _182
REMARK   77  A    between atoms: _186  and  _187
REMARK   78  A    between atoms: _192  and  _194
REMARK   79  A    between atoms: _194  and  _195
REMARK   80  A    between atoms: _194  and  _197
REMARK   81  A    between atoms: _197  and  _198
REMARK   82  A    between atoms: _202  and  _203
REMARK   83  A    between atoms: _208  and  _210
REMARK   84  A    between atoms: _210  and  _211
REMARK   85  A    between atoms: _210  and  _213
REMARK   86  A    between atoms: _216  and  _218
REMARK   87  A    between atoms: _218  and  _219
REMARK   88  A    between atoms: _218  and  _221
REMARK   89  A    between atoms: _221  and  _222
REMARK   90  A    between atoms: _227  and  _229
REMARK   91  A    between atoms: _229  and  _230
REMARK   92  A    between atoms: _229  and  _232
REMARK   93  A    between atoms: _232  and  _233
REMARK   94  A    between atoms: _236  and  _238
REMARK   95  A    between atoms: _238  and  _239
REMARK   96  A    between atoms: _238  and  _241
REMARK   97  A    between atoms: _241  and  _242
REMARK   98  A    between atoms: _245  and  _247
REMARK   99  A    between atoms: _247  and  _248
REMARK  100  A    between atoms: _250  and  _252
REMARK  101  A    between atoms: _252  and  _253
REMARK  102  A    between atoms: _252  and  _255
REMARK  103  A    between atoms: _255  and  _256
REMARK  104  A    between atoms: _256  and  _257
REMARK  105  A    between atoms: _257  and  _258
REMARK  106  A    between atoms: _267  and  _269
REMARK  107  A    between atoms: _269  and  _270
REMARK  108  A    between atoms: _269  and  _272
REMARK  109  A    between atoms: _272  and  _273
REMARK  110  A    between atoms: _278  and  _280
REMARK  111  A    between atoms: _280  and  _281
REMARK  112  A    between atoms: _280  and  _283
REMARK  113  A    between atoms: _283  and  _284
REMARK  114  A    between atoms: _284  and  _285
REMARK  115  A    between atoms: _285  and  _286
REMARK  116  A    between atoms: _296  and  _297
REMARK  117  A    between atoms: _302  and  _304
REMARK  118  A    between atoms: _304  and  _305
REMARK  119  A    between atoms: _304  and  _307
REMARK  120  A    between atoms: _307  and  _308
REMARK  121  A    between atoms: _311  and  _313
REMARK  122  A    between atoms: _313  and  _314
REMARK  123  A    between atoms: _313  and  _316
REMARK  124  A    between atoms: _316  and  _317
REMARK  125  A    between atoms: _320  and  _322
REMARK  126  A    between atoms: _322  and  _323
REMARK  127  A    between atoms: _322  and  _325
REMARK  128  A    between atoms: _325  and  _326
REMARK  129  A    between atoms: _329  and  _331
REMARK  130  A    between atoms: _331  and  _332
REMARK  131  A    between atoms: _331  and  _334
REMARK  132  A    between atoms: _334  and  _335
REMARK  133  A    between atoms: _338  and  _340
REMARK  134  A    between atoms: _340  and  _341
REMARK  135  A    between atoms: _340  and  _343
REMARK  136  A    between atoms: _343  and  _344
REMARK  137  A    between atoms: _347  and  _349
REMARK  138  A    between atoms: _349  and  _350
REMARK  139  A    between atoms: _352  and  _354
REMARK  140  A    between atoms: _354  and  _355
REMARK  141  A    between atoms: _358  and  _360
REMARK  142  A    between atoms: _360  and  _361
REMARK  143  A    between atoms: _360  and  _363
REMARK  144  A    between atoms: _363  and  _364
REMARK  145  A    between atoms: _367  and  _369
REMARK  146  A    between atoms: _369  and  _370
REMARK  147  A    between atoms: _369  and  _372
REMARK  148  A    between atoms: _372  and  _373
REMARK  149  A    between atoms: _376  and  _378
REMARK  150  A    between atoms: _378  and  _379
REMARK  151  A    between atoms: _378  and  _381
REMARK  152  A    between atoms: _381  and  _382
REMARK  153  A    between atoms: _385  and  _387
REMARK  154  A    between atoms: _387  and  _388
REMARK  155  A    between atoms: _387  and  _390
REMARK  156  A    between atoms: _393  and  _395
REMARK  157  A    between atoms: _395  and  _396
REMARK  158  A    between atoms: _395  and  _398
REMARK  159  A    between atoms: _398  and  _399
REMARK  160  A    between atoms: _399  and  _400
REMARK  161  A    between atoms: _400  and  _401
REMARK  162  A    between atoms: _401  and  _402
REMARK  163  A    between atoms: _406  and  _408
REMARK  164  A    between atoms: _408  and  _409
REMARK  165  A    between atoms: _408  and  _411
REMARK  166  A    between atoms: _411  and  _412
REMARK  167  A    between atoms: _412  and  _413
REMARK  168  A    between atoms: _415  and  _417
REMARK  169  A    between atoms: _417  and  _418
REMARK  170  A    between atoms: _417  and  _420
REMARK  171  A    between atoms: _420  and  _421
REMARK  172  A    between atoms: _424  and  _426
REMARK  173  A    between atoms: _426  and  _427
REMARK  174  A    between atoms: _429  and  _431
REMARK  175  A    between atoms: _431  and  _432
REMARK  176  A    between atoms: _434  and  _436
REMARK  177  A    between atoms: _436  and  _437
REMARK  178  A    between atoms: _436  and  _439
REMARK  179  A    between atoms: _439  and  _440
REMARK  180  A    between atoms: _443  and  _445
REMARK  181  A    between atoms: _445  and  _446
REMARK  182  A    between atoms: _448  and  _450
REMARK  183  A    between atoms: _450  and  _451
REMARK  184  A    between atoms: _453  and  _455
REMARK  185  A    between atoms: _455  and  _456
REMARK  186  A    between atoms: _455  and  _458
REMARK  187  A    between atoms: _458  and  _459
REMARK  188  A    between atoms: _465  and  _467
REMARK  189  A    between atoms: _467  and  _468
REMARK  190  A    between atoms: _467  and  _470
REMARK  191  A    between atoms: _470  and  _471
REMARK  192  A    between atoms: _474  and  _476
REMARK  193  A    between atoms: _476  and  _477
REMARK  194  A    between atoms: _476  and  _479
REMARK  195  A    between atoms: _482  and  _484
REMARK  196  A    between atoms: _484  and  _485
REMARK  197  A    between atoms: _484  and  _487
REMARK  198  A    between atoms: _487  and  _488
REMARK  199  A    between atoms: _491  and  _493
REMARK  200  A    between atoms: _493  and  _494
REMARK  201  A    between atoms: _493  and  _496
REMARK  202  A    between atoms: _496  and  _497
REMARK  203  A    between atoms: _501  and  _502
REMARK  204  A    between atoms: _507  and  _509
REMARK  205  A    between atoms: _509  and  _510
REMARK  206  A    between atoms: _509  and  _512
REMARK  207  A    between atoms: _515  and  _517
REMARK  208  A    between atoms: _517  and  _518
REMARK  209  A    between atoms: _517  and  _520
REMARK  210  A    between atoms: _520  and  _521
REMARK  211  A    between atoms: _526  and  _528
REMARK  212  A    between atoms: _528  and  _529
REMARK  213  A    between atoms: _528  and  _531
REMARK  214  A    between atoms: _531  and  _532
REMARK  215  A    between atoms: _535  and  _537
REMARK  216  A    between atoms: _537  and  _538
REMARK  217  A    between atoms: _537  and  _540
REMARK  218  A    between atoms: _540  and  _541
REMARK  219  A    between atoms: _544  and  _546
REMARK  220  A    between atoms: _546  and  _547
REMARK  221  A    between atoms: _549  and  _551
REMARK  222  A    between atoms: _551  and  _552
REMARK  223  A    between atoms: _551  and  _554
REMARK  224  A    between atoms: _554  and  _555
REMARK  225  A    between atoms: _555  and  _556
REMARK  226  A    between atoms: _556  and  _557
REMARK  227  A    between atoms: _566  and  _568
REMARK  228  A    between atoms: _568  and  _569
REMARK  229  A    between atoms: _568  and  _571
REMARK  230  A    between atoms: _571  and  _572
REMARK                            x       y       z     vdW  Elec       q    Type
REMARK                         _______ _______ _______ _____ _____    ______ ____
ROOT
ATOM      1  NE  ARG A   1      21.135  37.008  23.541  0.00  0.00    -0.265 N 
ATOM      2  HE  ARG A   1      20.223  36.525  23.411  0.00  0.00    +0.259 HD
ATOM      3  CZ  ARG A   1      21.312  38.169  22.920  0.00  0.00    +0.342 C 
ATOM      4  NH2 ARG A   1      22.444  38.856  23.063  0.00  0.00    -0.292 N 
ATOM      5 HH21 ARG A   1      23.205  38.485  23.668  0.00  0.00    +0.255 HD
ATOM      6 HH22 ARG A   1      22.567  39.763  22.570  0.00  0.00    +0.255 HD
ATOM      7  NH1 ARG A   1      20.345  38.643  22.154  0.00  0.00    -0.292 N 
ATOM      8 HH11 ARG A   1      19.460  38.108  22.044  0.00  0.00    +0.255 HD
ATOM      9 HH12 ARG A   1      20.469  39.551  21.662  0.00  0.00    +0.255 HD
ENDROOT
BRANCH   1  10
ATOM     10  CD  ARG A   1      22.128  36.363  24.392  0.00  0.00    +0.174 C 
BRANCH  10  11
ATOM     11  CG  ARG A   1      21.520  35.246  25.185  0.00  0.00    +0.045 C 
BRANCH  11  12
ATOM     12  CB  ARG A   1      22.556  34.475  25.973  0.00  0.00    +0.029 C 
BRANCH  12  13
ATOM     13  CA  ARG A   1      21.933  33.455  26.926  0.00  0.00    +0.133 C 
BRANCH  13  14
ATOM     14  N   ARG A   1      21.249  34.129  28.032  0.00  0.00    -0.239 NA
ATOM     15  H   ARG A   1      21.245  35.168  28.076  0.00  0.00    +0.142 HD
ENDBRANCH  13  14
BRANCH  13  16
ATOM     16  C   ARG A   1      23.031  32.542  27.480  0.00  0.00    +0.224 C 
ATOM     17  O   ARG A   1      23.826  32.977  28.309  0.00  0.00    -0.287 OA
ENDBRANCH  13  16
ENDBRANCH  12  13
ENDBRANCH  11  12
ENDBRANCH  10  11
ENDBRANCH   1  10
TORSDOF 6
REMARK  Name = ../refined-set-2016/3o9i/3o9i_pocket.pdb
REMARK  230 active torsions:
REMARK  status: ('A' for Active; 'I' for Inactive)
REMARK    1  A    between atoms: _1  and  _3
REMARK    2  A    between atoms: _3  and  _4
REMARK    3  A    between atoms: _3  and  _6
REMARK    4  A    between atoms: _6  and  _7
REMARK    5  A    between atoms: _7  and  _8
REMARK    6  A    between atoms: _8  and  _9
REMARK    7  A    between atoms: _18  and  _20
REMARK    8  A    between atoms: _20  and  _21
REMARK    9  A    between atoms: _20  and  _23
REMARK   10  A    between atoms: _23  and  _24
REMARK   11  A    between atoms: _27  and  _29
REMARK   12  A    between atoms: _29  and  _30
REMARK   13  A    between atoms: _29  and  _32
REMARK   14  A    between atoms: _32  and  _33
REMARK   15  A    between atoms: _36  and  _38
REMARK   16  A    between atoms: _38  and  _39
REMARK   17  A    between atoms: _38  and  _41
REMARK   18  A    between atoms: _41  and  _42
REMARK   19  A    between atoms: _45  and  _47
REMARK   20  A    between atoms: _47  and  _48
REMARK   21  A    between atoms: _47  and  _50
REMARK   22  A    between atoms: _50  and  _51
REMARK   23  A    between atoms: _54  and  _56
REMARK   24  A    between atoms: _56  and  _57
REMARK   25  A    between atoms: _56  and  _59
REMARK   26  A    between atoms: _59  and  _60
REMARK   27  A    between atoms: _63  and  _65
REMARK   28  A    between atoms: _65  and  _66
REMARK   29  A    between atoms: _68  and  _70
REMARK   30  A    between atoms: _70  and  _71
REMARK   31  A    between atoms: _74  and  _76
REMARK   32  A    between atoms: _76  and  _77
REMARK   33  A    between atoms: _76  and  _79
REMARK   34  A    between atoms: _79  and  _80
REMARK   35  A    between atoms: _83  and  _85
REMARK   36  A    between atoms: _85  and  _86
REMARK   37  A    between atoms: _85  and  _88
REMARK   38  A    between atoms: _88  and  _89
REMARK   39  A    between atoms: _92  and  _94
REMARK   40  A    between atoms: _94  and  _95
REMARK   41  A    between atoms: _94  and  _97
REMARK   42  A    between atoms: _97  and  _98
REMARK   43  A    between atoms: _101  and  _103
REMARK   44  A    between atoms: _103  and  _104
REMARK   45  A    between atoms: _103  and  _106
REMARK   46  A    between atoms: _109  and  _111
REMARK   47  A    between atoms: _111  and  _112
REMARK   48  A    between atoms: _111  and  _114
REMARK   49  A    between atoms: _114  and  _115
REMARK   50  A    between atoms: _118  and  _120
REMARK   51  A    between atoms: _120  and  _121
REMARK   52  A    between atoms: _123  and  _125
REMARK   53  A    between atoms: _125  and  _126
REMARK   54  A    between atoms: _128  and  _130
REMARK   55  A    between atoms: _130  and  _131
REMARK   56  A    between atoms: _130  and  _133
REMARK   57  A    between atoms: _133  and  _134
REMARK   58  A    between atoms: _137  and  _139
REMARK   59  A    between atoms: _139  and  _140
REMARK   60  A    between atoms: _142  and  _144
REMARK   61  A    between atoms: _144  and  _145
REMARK   62  A    between atoms: _147  and  _149
REMARK   63  A    between atoms: _149  and  _150
REMARK   64  A    between atoms: _149  and  _152
REMARK   65  A    between atoms: _152  and  _153
REMARK   66  A    between atoms: _159  and  _161
REMARK   67  A    between atoms: _161  and  _162
REMARK   68  A    between atoms: _161  and  _164
REMARK   69  A    between atoms: _164  and  _165
REMARK   70  A    between atoms: _168  and  _170
REMARK   71  A    between atoms: _170  and  _171
REMARK   72  A    between atoms: _170  and  _173
REMARK   73  A    between atoms: _176  and  _178
REMARK   74  A    between atoms: _178  and  _179
REMARK   75  A    between atoms: _178  and  _181
REMARK   76  A    between atoms: _181  and  _182
REMARK   77  A    between atoms: _186  and  _187
REMARK   78  A    between atoms: _192  and  _194
REMARK   79  A    between atoms: _194  and  _195
REMARK   80  A    between atoms: _194  and  _197
REMARK   81  A    between atoms: _197  and  _198
REMARK   82  A    between atoms: _202  and  _203
REMARK   83  A    between atoms: _208  and  _210
REMARK   84  A    between atoms: _210  and  _211
REMARK   85  A    between atoms: _210  and  _213
REMARK   86  A    between atoms: _216  and  _218
REMARK   87  A    between atoms: _218  and  _219
REMARK   88  A    between atoms: _218  and  _221
REMARK   89  A    between atoms: _221  and  _222
REMARK   90  A    between atoms: _227  and  _229
REMARK   91  A    between atoms: _229  and  _230
REMARK   92  A    between atoms: _229  and  _232
REMARK   93  A    between atoms: _232  and  _233
REMARK   94  A    between atoms: _236  and  _238
REMARK   95  A    between atoms: _238  and  _239
REMARK   96  A    between atoms: _238  and  _241
REMARK   97  A    between atoms: _241  and  _242
REMARK   98  A    between atoms: _245  and  _247
REMARK   99  A    between atoms: _247  and  _248
REMARK  100  A    between atoms: _250  and  _252
REMARK  101  A    between atoms: _252  and  _253
REMARK  102  A    between atoms: _252  and  _255
REMARK  103  A    between atoms: _255  and  _256
REMARK  104  A    between atoms: _256  and  _257
REMARK  105  A    between atoms: _257  and  _258
REMARK  106  A    between atoms: _267  and  _269
REMARK  107  A    between atoms: _269  and  _270
REMARK  108  A    between atoms: _269  and  _272
REMARK  109  A    between atoms: _272  and  _273
REMARK  110  A    between atoms: _278  and  _280
REMARK  111  A    between atoms: _280  and  _281
REMARK  112  A    between atoms: _280  and  _283
REMARK  113  A    between atoms: _283  and  _284
REMARK  114  A    between atoms: _284  and  _285
REMARK  115  A    between atoms: _285  and  _286
REMARK  116  A    between atoms: _296  and  _297
REMARK  117  A    between atoms: _302  and  _304
REMARK  118  A    between atoms: _304  and  _305
REMARK  119  A    between atoms: _304  and  _307
REMARK  120  A    between atoms: _307  and  _308
REMARK  121  A    between atoms: _311  and  _313
REMARK  122  A    between atoms: _313  and  _314
REMARK  123  A    between atoms: _313  and  _316
REMARK  124  A    between atoms: _316  and  _317
REMARK  125  A    between atoms: _320  and  _322
REMARK  126  A    between atoms: _322  and  _323
REMARK  127  A    between atoms: _322  and  _325
REMARK  128  A    between atoms: _325  and  _326
REMARK  129  A    between atoms: _329  and  _331
REMARK  130  A    between atoms: _331  and  _332
REMARK  131  A    between atoms: _331  and  _334
REMARK  132  A    between atoms: _334  and  _335
REMARK  133  A    between atoms: _338  and  _340
REMARK  134  A    between atoms: _340  and  _341
REMARK  135  A    between atoms: _340  and  _343
REMARK  136  A    between atoms: _343  and  _344
REMARK  137  A    between atoms: _347  and  _349
REMARK  138  A    between atoms: _349  and  _350
REMARK  139  A    between atoms: _352  and  _354
REMARK  140  A    between atoms: _354  and  _355
REMARK  141  A    between atoms: _358  and  _360
REMARK  142  A    between atoms: _360  and  _361
REMARK  143  A    between atoms: _360  and  _363
REMARK  144  A    between atoms: _363  and  _364
REMARK  145  A    between atoms: _367  and  _369
REMARK  146  A    between atoms: _369  and  _370
REMARK  147  A    between atoms: _369  and  _372
REMARK  148  A    between atoms: _372  and  _373
REMARK  149  A    between atoms: _376  and  _378
REMARK  150  A    between atoms: _378  and  _379
REMARK  151  A    between atoms: _378  and  _381
REMARK  152  A    between atoms: _381  and  _382
REMARK  153  A    between atoms: _385  and  _387
REMARK  154  A    between atoms: _387  and  _388
REMARK  155  A    between atoms: _387  and  _390
REMARK  156  A    between atoms: _393  and  _395
REMARK  157  A    between atoms: _395  and  _396
REMARK  158  A    between atoms: _395  and  _398
REMARK  159  A    between atoms: _398  and  _399
REMARK  160  A    between atoms: _399  and  _400
REMARK  161  A    between atoms: _400  and  _401
REMARK  162  A    between atoms: _401  and  _402
REMARK  163  A    between atoms: _406  and  _408
REMARK  164  A    between atoms: _408  and  _409
REMARK  165  A    between atoms: _408  and  _411
REMARK  166  A    between atoms: _411  and  _412
REMARK  167  A    between atoms: _412  and  _413
REMARK  168  A    between atoms: _415  and  _417
REMARK  169  A    between atoms: _417  and  _418
REMARK  170  A    between atoms: _417  and  _420
REMARK  171  A    between atoms: _420  and  _421
REMARK  172  A    between atoms: _424  and  _426
REMARK  173  A    between atoms: _426  and  _427
REMARK  174  A    between atoms: _429  and  _431
REMARK  175  A    between atoms: _431  and  _432
REMARK  176  A    between atoms: _434  and  _436
REMARK  177  A    between atoms: _436  and  _437
REMARK  178  A    between atoms: _436  and  _439
REMARK  179  A    between atoms: _439  and  _440
REMARK  180  A    between atoms: _443  and  _445
REMARK  181  A    between atoms: _445  and  _446
REMARK  182  A    between atoms: _448  and  _450
REMARK  183  A    between atoms: _450  and  _451
REMARK  184  A    between atoms: _453  and  _455
REMARK  185  A    between atoms: _455  and  _456
REMARK  186  A    between atoms: _455  and  _458
REMARK  187  A    between atoms: _458  and  _459
REMARK  188  A    between atoms: _465  and  _467
REMARK  189  A    between atoms: _467  and  _468
REMARK  190  A    between atoms: _467  and  _470
REMARK  191  A    between atoms: _470  and  _471
REMARK  192  A    between atoms: _474  and  _476
REMARK  193  A    between atoms: _476  and  _477
REMARK  194  A    between atoms: _476  and  _479
REMARK  195  A    between atoms: _482  and  _484
REMARK  196  A    between atoms: _484  and  _485
REMARK  197  A    between atoms: _484  and  _487
REMARK  198  A    between atoms: _487  and  _488
REMARK  199  A    between atoms: _491  and  _493
REMARK  200  A    between atoms: _493  and  _494
REMARK  201  A    between atoms: _493  and  _496
REMARK  202  A    between atoms: _496  and  _497
REMARK  203  A    between atoms: _501  and  _502
REMARK  204  A    between atoms: _507  and  _509
REMARK  205  A    between atoms: _509  and  _510
REMARK  206  A    between atoms: _509  and  _512
REMARK  207  A    between atoms: _515  and  _517
REMARK  208  A    between atoms: _517  and  _518
REMARK  209  A    between atoms: _517  and  _520
REMARK  210  A    between atoms: _520  and  _521
REMARK  211  A    between atoms: _526  and  _528
REMARK  212  A    between atoms: _528  and  _529
REMARK  213  A    between atoms: _528  and  _531
REMARK  214  A    between atoms: _531  and  _532
REMARK  215  A    between atoms: _535  and  _537
REMARK  216  A    between atoms: _537  and  _538
REMARK  217  A    between atoms: _537  and  _540
REMARK  218  A    between atoms: _540  and  _541
REMARK  219  A    between atoms: _544  and  _546
REMARK  220  A    between atoms: _546  and  _547
REMARK  221  A    between atoms: _549  and  _551
REMARK  222  A    between atoms: _551  and  _552
REMARK  223  A    between atoms: _551  and  _554
REMARK  224  A    between atoms: _554  and  _555
REMARK  225  A    between atoms: _555  and  _556
REMARK  226  A    between atoms: _556  and  _557
REMARK  227  A    between atoms: _566  and  _568
REMARK  228  A    between atoms: _568  and  _569
REMARK  229  A    between atoms: _568  and  _571
REMARK  230  A    between atoms: _571  and  _572
REMARK                            x       y       z     vdW  Elec       q    Type
REMARK                         _______ _______ _______ _____ _____    ______ ____
ROOT
ATOM      1  CA  LEU A   1      27.388  32.199  26.679  0.00  0.00    +0.133 C 
ENDROOT
BRANCH   1   2
ATOM      2  N   LEU A   1      26.095  31.767  27.181  0.00  0.00    -0.239 NA
ATOM      3  H   LEU A   1      25.614  32.360  27.887  0.00  0.00    +0.142 HD
ENDBRANCH   1   2
BRANCH   1   4
ATOM      4  C   LEU A   1      28.493  31.613  27.551  0.00  0.00    +0.224 C 
ATOM      5  O   LEU A   1      28.369  31.556  28.783  0.00  0.00    -0.287 OA
ENDBRANCH   1   4
BRANCH   1   6
ATOM      6  CB  LEU A   1      27.458  33.725  26.709  0.00  0.00    +0.025 C 
BRANCH   6   7
ATOM      7  CG  LEU A   1      26.521  34.429  25.735  0.00  0.00    +0.002 C 
ATOM      8  CD2 LEU A   1      26.366  35.889  26.145  0.00  0.00    +0.000 C 
ATOM      9  CD1 LEU A   1      27.045  34.325  24.321  0.00  0.00    +0.000 C 
ENDBRANCH   6   7
ENDBRANCH   1   6
TORSDOF 4
REMARK  Name = ../refined-set-2016/3o9i/3o9i_pocket.pdb
REMARK  230 active torsions:
REMARK  status: ('A' for Active; 'I' for Inactive)
REMARK    1  A    between atoms: _1  and  _3
REMARK    2  A    between atoms: _3  and  _4
REMARK    3  A    between atoms: _3  and  _6
REMARK    4  A    between atoms: _6  and  _7
REMARK    5  A    between atoms: _7  and  _8
REMARK    6  A    between atoms: _8  and  _9
REMARK    7  A    between atoms: _18  and  _20
REMARK    8  A    between atoms: _20  and  _21
REMARK    9  A    between atoms: _20  and  _23
REMARK   10  A    between atoms: _23  and  _24
REMARK   11  A    between atoms: _27  and  _29
REMARK   12  A    between atoms: _29  and  _30
REMARK   13  A    between atoms: _29  and  _32
REMARK   14  A    between atoms: _32  and  _33
REMARK   15  A    between atoms: _36  and  _38
REMARK   16  A    between atoms: _38  and  _39
REMARK   17  A    between atoms: _38  and  _41
REMARK   18  A    between atoms: _41  and  _42
REMARK   19  A    between atoms: _45  and  _47
REMARK   20  A    between atoms: _47  and  _48
REMARK   21  A    between atoms: _47  and  _50
REMARK   22  A    between atoms: _50  and  _51
REMARK   23  A    between atoms: _54  and  _56
REMARK   24  A    between atoms: _56  and  _57
REMARK   25  A    between atoms: _56  and  _59
REMARK   26  A    between atoms: _59  and  _60
REMARK   27  A    between atoms: _63  and  _65
REMARK   28  A    between atoms: _65  and  _66
REMARK   29  A    between atoms: _68  and  _70
REMARK   30  A    between atoms: _70  and  _71
REMARK   31  A    between atoms: _74  and  _76
REMARK   32  A    between atoms: _76  and  _77
REMARK   33  A    between atoms: _76  and  _79
REMARK   34  A    between atoms: _79  and  _80
REMARK   35  A    between atoms: _83  and  _85
REMARK   36  A    between atoms: _85  and  _86
REMARK   37  A    between atoms: _85  and  _88
REMARK   38  A    between atoms: _88  and  _89
REMARK   39  A    between atoms: _92  and  _94
REMARK   40  A    between atoms: _94  and  _95
REMARK   41  A    between atoms: _94  and  _97
REMARK   42  A    between atoms: _97  and  _98
REMARK   43  A    between atoms: _101  and  _103
REMARK   44  A    between atoms: _103  and  _104
REMARK   45  A    between atoms: _103  and  _106
REMARK   46  A    between atoms: _109  and  _111
REMARK   47  A    between atoms: _111  and  _112
REMARK   48  A    between atoms: _111  and  _114
REMARK   49  A    between atoms: _114  and  _115
REMARK   50  A    between atoms: _118  and  _120
REMARK   51  A    between atoms: _120  and  _121
REMARK   52  A    between atoms: _123  and  _125
REMARK   53  A    between atoms: _125  and  _126
REMARK   54  A    between atoms: _128  and  _130
REMARK   55  A    between atoms: _130  and  _131
REMARK   56  A    between atoms: _130  and  _133
REMARK   57  A    between atoms: _133  and  _134
REMARK   58  A    between atoms: _137  and  _139
REMARK   59  A    between atoms: _139  and  _140
REMARK   60  A    between atoms: _142  and  _144
REMARK   61  A    between atoms: _144  and  _145
REMARK   62  A    between atoms: _147  and  _149
REMARK   63  A    between atoms: _149  and  _150
REMARK   64  A    between atoms: _149  and  _152
REMARK   65  A    between atoms: _152  and  _153
REMARK   66  A    between atoms: _159  and  _161
REMARK   67  A    between atoms: _161  and  _162
REMARK   68  A    between atoms: _161  and  _164
REMARK   69  A    between atoms: _164  and  _165
REMARK   70  A    between atoms: _168  and  _170
REMARK   71  A    between atoms: _170  and  _171
REMARK   72  A    between atoms: _170  and  _173
REMARK   73  A    between atoms: _176  and  _178
REMARK   74  A    between atoms: _178  and  _179
REMARK   75  A    between atoms: _178  and  _181
REMARK   76  A    between atoms: _181  and  _182
REMARK   77  A    between atoms: _186  and  _187
REMARK   78  A    between atoms: _192  and  _194
REMARK   79  A    between atoms: _194  and  _195
REMARK   80  A    between atoms: _194  and  _197
REMARK   81  A    between atoms: _197  and  _198
REMARK   82  A    between atoms: _202  and  _203
REMARK   83  A    between atoms: _208  and  _210
REMARK   84  A    between atoms: _210  and  _211
REMARK   85  A    between atoms: _210  and  _213
REMARK   86  A    between atoms: _216  and  _218
REMARK   87  A    between atoms: _218  and  _219
REMARK   88  A    between atoms: _218  and  _221
REMARK   89  A    between atoms: _221  and  _222
REMARK   90  A    between atoms: _227  and  _229
REMARK   91  A    between atoms: _229  and  _230
REMARK   92  A    between atoms: _229  and  _232
REMARK   93  A    between atoms: _232  and  _233
REMARK   94  A    between atoms: _236  and  _238
REMARK   95  A    between atoms: _238  and  _239
REMARK   96  A    between atoms: _238  and  _241
REMARK   97  A    between atoms: _241  and  _242
REMARK   98  A    between atoms: _245  and  _247
REMARK   99  A    between atoms: _247  and  _248
REMARK  100  A    between atoms: _250  and  _252
REMARK  101  A    between atoms: _252  and  _253
REMARK  102  A    between atoms: _252  and  _255
REMARK  103  A    between atoms: _255  and  _256
REMARK  104  A    between atoms: _256  and  _257
REMARK  105  A    between atoms: _257  and  _258
REMARK  106  A    between atoms: _267  and  _269
REMARK  107  A    between atoms: _269  and  _270
REMARK  108  A    between atoms: _269  and  _272
REMARK  109  A    between atoms: _272  and  _273
REMARK  110  A    between atoms: _278  and  _280
REMARK  111  A    between atoms: _280  and  _281
REMARK  112  A    between atoms: _280  and  _283
REMARK  113  A    between atoms: _283  and  _284
REMARK  114  A    between atoms: _284  and  _285
REMARK  115  A    between atoms: _285  and  _286
REMARK  116  A    between atoms: _296  and  _297
REMARK  117  A    between atoms: _302  and  _304
REMARK  118  A    between atoms: _304  and  _305
REMARK  119  A    between atoms: _304  and  _307
REMARK  120  A    between atoms: _307  and  _308
REMARK  121  A    between atoms: _311  and  _313
REMARK  122  A    between atoms: _313  and  _314
REMARK  123  A    between atoms: _313  and  _316
REMARK  124  A    between atoms: _316  and  _317
REMARK  125  A    between atoms: _320  and  _322
REMARK  126  A    between atoms: _322  and  _323
REMARK  127  A    between atoms: _322  and  _325
REMARK  128  A    between atoms: _325  and  _326
REMARK  129  A    between atoms: _329  and  _331
REMARK  130  A    between atoms: _331  and  _332
REMARK  131  A    between atoms: _331  and  _334
REMARK  132  A    between atoms: _334  and  _335
REMARK  133  A    between atoms: _338  and  _340
REMARK  134  A    between atoms: _340  and  _341
REMARK  135  A    between atoms: _340  and  _343
REMARK  136  A    between atoms: _343  and  _344
REMARK  137  A    between atoms: _347  and  _349
REMARK  138  A    between atoms: _349  and  _350
REMARK  139  A    between atoms: _352  and  _354
REMARK  140  A    between atoms: _354  and  _355
REMARK  141  A    between atoms: _358  and  _360
REMARK  142  A    between atoms: _360  and  _361
REMARK  143  A    between atoms: _360  and  _363
REMARK  144  A    between atoms: _363  and  _364
REMARK  145  A    between atoms: _367  and  _369
REMARK  146  A    between atoms: _369  and  _370
REMARK  147  A    between atoms: _369  and  _372
REMARK  148  A    between atoms: _372  and  _373
REMARK  149  A    between atoms: _376  and  _378
REMARK  150  A    between atoms: _378  and  _379
REMARK  151  A    between atoms: _378  and  _381
REMARK  152  A    between atoms: _381  and  _382
REMARK  153  A    between atoms: _385  and  _387
REMARK  154  A    between atoms: _387  and  _388
REMARK  155  A    between atoms: _387  and  _390
REMARK  156  A    between atoms: _393  and  _395
REMARK  157  A    between atoms: _395  and  _396
REMARK  158  A    between atoms: _395  and  _398
REMARK  159  A    between atoms: _398  and  _399
REMARK  160  A    between atoms: _399  and  _400
REMARK  161  A    between atoms: _400  and  _401
REMARK  162  A    between atoms: _401  and  _402
REMARK  163  A    between atoms: _406  and  _408
REMARK  164  A    between atoms: _408  and  _409
REMARK  165  A    between atoms: _408  and  _411
REMARK  166  A    between atoms: _411  and  _412
REMARK  167  A    between atoms: _412  and  _413
REMARK  168  A    between atoms: _415  and  _417
REMARK  169  A    between atoms: _417  and  _418
REMARK  170  A    between atoms: _417  and  _420
REMARK  171  A    between atoms: _420  and  _421
REMARK  172  A    between atoms: _424  and  _426
REMARK  173  A    between atoms: _426  and  _427
REMARK  174  A    between atoms: _429  and  _431
REMARK  175  A    between atoms: _431  and  _432
REMARK  176  A    between atoms: _434  and  _436
REMARK  177  A    between atoms: _436  and  _437
REMARK  178  A    between atoms: _436  and  _439
REMARK  179  A    between atoms: _439  and  _440
REMARK  180  A    between atoms: _443  and  _445
REMARK  181  A    between atoms: _445  and  _446
REMARK  182  A    between atoms: _448  and  _450
REMARK  183  A    between atoms: _450  and  _451
REMARK  184  A    between atoms: _453  and  _455
REMARK  185  A    between atoms: _455  and  _456
REMARK  186  A    between atoms: _455  and  _458
REMARK  187  A    between atoms: _458  and  _459
REMARK  188  A    between atoms: _465  and  _467
REMARK  189  A    between atoms: _467  and  _468
REMARK  190  A    between atoms: _467  and  _470
REMARK  191  A    between atoms: _470  and  _471
REMARK  192  A    between atoms: _474  and  _476
REMARK  193  A    between atoms: _476  and  _477
REMARK  194  A    between atoms: _476  and  _479
REMARK  195  A    between atoms: _482  and  _484
REMARK  196  A    between atoms: _484  and  _485
REMARK  197  A    between atoms: _484  and  _487
REMARK  198  A    between atoms: _487  and  _488
REMARK  199  A    between atoms: _491  and  _493
REMARK  200  A    between atoms: _493  and  _494
REMARK  201  A    between atoms: _493  and  _496
REMARK  202  A    between atoms: _496  and  _497
REMARK  203  A    between atoms: _501  and  _502
REMARK  204  A    between atoms: _507  and  _509
REMARK  205  A    between atoms: _509  and  _510
REMARK  206  A    between atoms: _509  and  _512
REMARK  207  A    between atoms: _515  and  _517
REMARK  208  A    between atoms: _517  and  _518
REMARK  209  A    between atoms: _517  and  _520
REMARK  210  A    between atoms: _520  and  _521
REMARK  211  A    between atoms: _526  and  _528
REMARK  212  A    between atoms: _528  and  _529
REMARK  213  A    between atoms: _528  and  _531
REMARK  214  A    between atoms: _531  and  _532
REMARK  215  A    between atoms: _535  and  _537
REMARK  216  A    between atoms: _537  and  _538
REMARK  217  A    between atoms: _537  and  _540
REMARK  218  A    between atoms: _540  and  _541
REMARK  219  A    between atoms: _544  and  _546
REMARK  220  A    between atoms: _546  and  _547
REMARK  221  A    between atoms: _549  and  _551
REMARK  222  A    between atoms: _551  and  _552
REMARK  223  A    between atoms: _551  and  _554
REMARK  224  A    between atoms: _554  and  _555
REMARK  225  A    between atoms: _555  and  _556
REMARK  226  A    between atoms: _556  and  _557
REMARK  227  A    between atoms: _566  and  _568
REMARK  228  A    between atoms: _568  and  _569
REMARK  229  A    between atoms: _568  and  _571
REMARK  230  A    between atoms: _571  and  _572
REMARK                            x       y       z     vdW  Elec       q    Type
REMARK                         _______ _______ _______ _____ _____    ______ ____
ROOT
ATOM      1  C   GLY A   5      20.582  24.850  15.928  0.00  0.00    +0.243 C 
ATOM      2  N   ALA A   6      21.887  24.845  16.197  0.00  0.00    -0.297 N 
ATOM      3  H   ALA A   6      22.194  24.799  17.190  0.00  0.00    +0.150 HD
ATOM      4  O   GLY A   5      20.129  24.974  14.786  0.00  0.00    -0.273 OA
ENDROOT
BRANCH   2   5
ATOM      5  CA  ALA A   6      22.903  24.902  15.149  0.00  0.00    +0.149 C 
ATOM      6  CB  ALA A   6      23.980  25.893  15.547  0.00  0.00    +0.031 C 
BRANCH   5   7
ATOM      7  C   ALA A   6      23.511  23.524  14.931  0.00  0.00    +0.241 C 
ATOM      8  O   ALA A   6      24.024  22.925  15.871  0.00  0.00    -0.273 OA
ATOM      9  N   ASP A   7      23.478  23.023  13.699  0.00  0.00    -0.297 N 
ATOM     10  H   ASP A   7      22.951  23.531  12.960  0.00  0.00    +0.150 HD
BRANCH   9  11
ATOM     11  CA  ASP A   7      24.157  21.786  13.357  0.00  0.00    +0.160 C 
BRANCH  11  12
ATOM     12  C   ASP A   7      25.657  21.994  13.515  0.00  0.00    +0.241 C 
ATOM     13  O   ASP A   7      26.387  21.072  13.892  0.00  0.00    -0.273 OA
ATOM     14  N   ASP A   8      26.106  23.182  13.119  0.00  0.00    -0.297 N 
ATOM     15  H   ASP A   8      25.415  23.935  12.926  0.00  0.00    +0.150 HD
BRANCH  14  16
ATOM     16  CA  ASP A   8      27.522  23.477  12.944  0.00  0.00    +0.160 C 
BRANCH  16  17
ATOM     17  C   ASP A   8      27.994  24.564  13.881  0.00  0.00    +0.241 C 
ATOM     18  O   ASP A   8      27.221  25.418  14.293  0.00  0.00    -0.273 OA
ATOM     19  N   THR A   9      29.293  24.550  14.151  0.00  0.00    -0.295 N 
ATOM     20  H   THR A   9      29.859  23.749  13.806  0.00  0.00    +0.150 HD
BRANCH  19  21
ATOM     21  CA  THR A   9      29.970  25.599  14.907  0.00  0.00    +0.176 C 
BRANCH  21  22
ATOM     22  C   THR A   9      30.444  26.686  13.948  0.00  0.00    +0.243 C 
ATOM     23  N   VAL A  10      30.054  27.933  14.207  0.00  0.00    -0.298 N 
ATOM     24  H   VAL A  10      29.516  28.116  15.078  0.00  0.00    +0.150 HD
ATOM     25  O   THR A   9      31.112  26.382  12.965  0.00  0.00    -0.273 OA
BRANCH  23  26
ATOM     26  CA  VAL A  10      30.351  29.053  13.319  0.00  0.00    +0.137 C 
BRANCH  26  27
ATOM     27  CB  VAL A  10      29.101  29.545  12.540  0.00  0.00    +0.026 C 
ATOM     28  CG2 VAL A  10      28.323  28.367  11.944  0.00  0.00    +0.002 C 
ATOM     29  CG1 VAL A  10      29.535  30.487  11.431  0.00  0.00    +0.002 C 
ENDBRANCH  26  27
BRANCH  26  30
ATOM     30  C   VAL A  10      30.900  30.198  14.158  0.00  0.00    +0.227 C 
ATOM     31  O   VAL A  10      30.246  30.647  15.102  0.00  0.00    -0.286 OA
ENDBRANCH  26  30
ENDBRANCH  23  26
ENDBRANCH  21  22
BRANCH  21  32
ATOM     32  CB  THR A   9      31.151  24.982  15.681  0.00  0.00    +0.137 C 
ATOM     33  CG2 THR A   9      32.011  26.023  16.360  0.00  0.00    +0.034 C 
BRANCH  32  34
ATOM     34  OG1 THR A   9      30.614  24.099  16.669  0.00  0.00    -0.382 OA
ATOM     35  HG1 THR A   9      30.087  23.389  16.224  0.00  0.00    +0.210 HD
ENDBRANCH  32  34
ENDBRANCH  21  32
ENDBRANCH  19  21
ENDBRANCH  16  17
BRANCH  16  36
ATOM     36  CB  ASP A   8      27.795  23.970  11.525  0.00  0.00    +0.143 C 
BRANCH  36  37
ATOM     37  CG  ASP A   8      27.264  23.040  10.461  0.00  0.00    +0.367 C 
ATOM     38  OD2 ASP A   8      27.497  21.815  10.541  0.00  0.00    -0.246 OA
ATOM     39  OD1 ASP A   8      26.648  23.568   9.507  0.00  0.00    -0.246 OA
ENDBRANCH  36  37
ENDBRANCH  16  36
ENDBRANCH  14  16
ENDBRANCH  11  12
BRANCH  11  40
ATOM     40  CB  ASP A   7      23.901  21.370  11.906  0.00  0.00    +0.143 C 
BRANCH  40  41
ATOM     41  CG  ASP A   7      22.448  21.142  11.574  0.00  0.00    +0.367 C 
ATOM     42  OD2 ASP A   7      21.600  20.975  12.471  0.00  0.00    -0.246 OA
ATOM     43  OD1 ASP A   7      22.161  21.088  10.361  0.00  0.00    -0.246 OA
ENDBRANCH  40  41
ENDBRANCH  11  40
ENDBRANCH   9  11
ENDBRANCH   5   7
ENDBRANCH   2   5
BRANCH   1  44
ATOM     44  CA  GLY A   5      19.624  24.727  17.098  0.00  0.00    +0.176 C 
BRANCH  44  46
ATOM     45  C   THR A   4      20.699  23.425  18.871  0.00  0.00    +0.243 C 
ATOM     46  N   GLY A   5      20.257  24.585  18.400  0.00  0.00    -0.295 N 
ATOM     47  H   GLY A   5      20.369  25.434  18.991  0.00  0.00    +0.150 HD
ATOM     48  O   THR A   4      20.537  22.356  18.294  0.00  0.00    -0.273 OA
BRANCH  45  49
ATOM     49  CA  THR A   4      21.470  23.442  20.178  0.00  0.00    +0.176 C 
BRANCH  49  51
ATOM     50  C   ASP A   3      22.939  25.329  19.844  0.00  0.00    +0.241 C 
ATOM     51  N   THR A   4      21.963  24.771  20.541  0.00  0.00    -0.295 N 
ATOM     52  H   THR A   4      21.546  25.277  21.348  0.00  0.00    +0.150 HD
ATOM     53  O   ASP A   3      23.397  24.809  18.818  0.00  0.00    -0.273 OA
BRANCH  50  54
ATOM     54  CA  ASP A   3      23.429  26.690  20.337  0.00  0.00    +0.160 C 
BRANCH  54  57
ATOM     55  C   LEU A   2      24.555  27.114  22.455  0.00  0.00    +0.241 C 
ATOM     56  O   LEU A   2      23.551  27.568  23.004  0.00  0.00    -0.273 OA
ATOM     57  N   ASP A   3      24.554  26.540  21.253  0.00  0.00    -0.297 N 
ATOM     58  H   ASP A   3      25.375  25.972  20.961  0.00  0.00    +0.150 HD
BRANCH  55  59
ATOM     59  CA  LEU A   2      25.902  27.202  23.154  0.00  0.00    +0.149 C 
BRANCH  59  61
ATOM     60  C   LEU A   1      26.652  29.335  22.250  0.00  0.00    +0.238 C 
ATOM     61  N   LEU A   2      26.247  28.612  23.291  0.00  0.00    -0.297 N 
ATOM     62  H   LEU A   2      26.175  29.064  24.225  0.00  0.00    +0.150 HD
ATOM     63  O   LEU A   1      26.846  28.843  21.139  0.00  0.00    -0.274 OA
BRANCH  60  64
ATOM     64  CA  LEU A   1      26.867  30.822  22.482  0.00  0.00    +0.145 C 
BRANCH  64  65
ATOM     65  N   LEU A   1      28.198  31.218  22.079  0.00  0.00    -0.238 NA
ATOM     66  H   LEU A   1      28.365  31.421  21.073  0.00  0.00    +0.142 HD
ENDBRANCH  64  65
BRANCH  64  67
ATOM     67  CB  LEU A   1      25.868  31.626  21.650  0.00  0.00    +0.026 C 
BRANCH  67  68
ATOM     68  CG  LEU A   1      24.376  31.437  21.841  0.00  0.00    +0.002 C 
ATOM     69  CD2 LEU A   1      23.991  31.989  23.189  0.00  0.00    +0.000 C 
ATOM     70  CD1 LEU A   1      23.619  32.146  20.726  0.00  0.00    +0.000 C 
ENDBRANCH  67  68
ENDBRANCH  64  67
ENDBRANCH  60  64
ENDBRANCH  59  61
BRANCH  59  71
ATOM     71  CB  LEU A   2      25.879  26.508  24.521  0.00  0.00    +0.029 C 
BRANCH  71  72
ATOM     72  CG  LEU A   2      27.150  26.572  25.368  0.00  0.00    +0.002 C 
ATOM     73  CD2 LEU A   2      26.973  25.859  26.724  0.00  0.00    +0.000 C 
ATOM     74  CD1 LEU A   2      28.339  25.977  24.609  0.00  0.00    +0.000 C 
ENDBRANCH  71  72
ENDBRANCH  59  71
ENDBRANCH  55  59
ENDBRANCH  54  57
BRANCH  54  75
ATOM     75  CB  ASP A   3      23.866  27.595  19.173  0.00  0.00    +0.143 C 
BRANCH  75  76
ATOM     76  CG  ASP A   3      22.727  27.993  18.255  0.00  0.00    +0.367 C 
ATOM     77  OD2 ASP A   3      21.608  27.445  18.448  0.00  0.00    -0.246 OA
ATOM     78  OD1 ASP A   3      22.953  28.822  17.349  0.00  0.00    -0.246 OA
ENDBRANCH  75  76
ENDBRANCH  54  75
ENDBRANCH  50  54
ENDBRANCH  49  51
BRANCH  49  79
ATOM     79  CB  THR A   4      20.576  22.858  21.288  0.00  0.00    +0.137 C 
ATOM     80  CG2 THR A   4      21.395  22.614  22.567  0.00  0.00    +0.034 C 
BRANCH  79  81
ATOM     81  OG1 THR A   4      19.469  23.734  21.556  0.00  0.00    -0.382 OA
ATOM     82  HG1 THR A   4      18.930  23.844  20.733  0.00  0.00    +0.210 HD
ENDBRANCH  79  81
ENDBRANCH  49  79
ENDBRANCH  45  49
ENDBRANCH  44  46
ENDBRANCH   1  44
TORSDOF 35
REMARK  Name = ../refined-set-2016/3o9i/3o9i_pocket.pdb
REMARK  230 active torsions:
REMARK  status: ('A' for Active; 'I' for Inactive)
REMARK    1  A    between atoms: _1  and  _3
REMARK    2  A    between atoms: _3  and  _4
REMARK    3  A    between atoms: _3  and  _6
REMARK    4  A    between atoms: _6  and  _7
REMARK    5  A    between atoms: _7  and  _8
REMARK    6  A    between atoms: _8  and  _9
REMARK    7  A    between atoms: _18  and  _20
REMARK    8  A    between atoms: _20  and  _21
REMARK    9  A    between atoms: _20  and  _23
REMARK   10  A    between atoms: _23  and  _24
REMARK   11  A    between atoms: _27  and  _29
REMARK   12  A    between atoms: _29  and  _30
REMARK   13  A    between atoms: _29  and  _32
REMARK   14  A    between atoms: _32  and  _33
REMARK   15  A    between atoms: _36  and  _38
REMARK   16  A    between atoms: _38  and  _39
REMARK   17  A    between atoms: _38  and  _41
REMARK   18  A    between atoms: _41  and  _42
REMARK   19  A    between atoms: _45  and  _47
REMARK   20  A    between atoms: _47  and  _48
REMARK   21  A    between atoms: _47  and  _50
REMARK   22  A    between atoms: _50  and  _51
REMARK   23  A    between atoms: _54  and  _56
REMARK   24  A    between atoms: _56  and  _57
REMARK   25  A    between atoms: _56  and  _59
REMARK   26  A    between atoms: _59  and  _60
REMARK   27  A    between atoms: _63  and  _65
REMARK   28  A    between atoms: _65  and  _66
REMARK   29  A    between atoms: _68  and  _70
REMARK   30  A    between atoms: _70  and  _71
REMARK   31  A    between atoms: _74  and  _76
REMARK   32  A    between atoms: _76  and  _77
REMARK   33  A    between atoms: _76  and  _79
REMARK   34  A    between atoms: _79  and  _80
REMARK   35  A    between atoms: _83  and  _85
REMARK   36  A    between atoms: _85  and  _86
REMARK   37  A    between atoms: _85  and  _88
REMARK   38  A    between atoms: _88  and  _89
REMARK   39  A    between atoms: _92  and  _94
REMARK   40  A    between atoms: _94  and  _95
REMARK   41  A    between atoms: _94  and  _97
REMARK   42  A    between atoms: _97  and  _98
REMARK   43  A    between atoms: _101  and  _103
REMARK   44  A    between atoms: _103  and  _104
REMARK   45  A    between atoms: _103  and  _106
REMARK   46  A    between atoms: _109  and  _111
REMARK   47  A    between atoms: _111  and  _112
REMARK   48  A    between atoms: _111  and  _114
REMARK   49  A    between atoms: _114  and  _115
REMARK   50  A    between atoms: _118  and  _120
REMARK   51  A    between atoms: _120  and  _121
REMARK   52  A    between atoms: _123  and  _125
REMARK   53  A    between atoms: _125  and  _126
REMARK   54  A    between atoms: _128  and  _130
REMARK   55  A    between atoms: _130  and  _131
REMARK   56  A    between atoms: _130  and  _133
REMARK   57  A    between atoms: _133  and  _134
REMARK   58  A    between atoms: _137  and  _139
REMARK   59  A    between atoms: _139  and  _140
REMARK   60  A    between atoms: _142  and  _144
REMARK   61  A    between atoms: _144  and  _145
REMARK   62  A    between atoms: _147  and  _149
REMARK   63  A    between atoms: _149  and  _150
REMARK   64  A    between atoms: _149  and  _152
REMARK   65  A    between atoms: _152  and  _153
REMARK   66  A    between atoms: _159  and  _161
REMARK   67  A    between atoms: _161  and  _162
REMARK   68  A    between atoms: _161  and  _164
REMARK   69  A    between atoms: _164  and  _165
REMARK   70  A    between atoms: _168  and  _170
REMARK   71  A    between atoms: _170  and  _171
REMARK   72  A    between atoms: _170  and  _173
REMARK   73  A    between atoms: _176  and  _178
REMARK   74  A    between atoms: _178  and  _179
REMARK   75  A    between atoms: _178  and  _181
REMARK   76  A    between atoms: _181  and  _182
REMARK   77  A    between atoms: _186  and  _187
REMARK   78  A    between atoms: _192  and  _194
REMARK   79  A    between atoms: _194  and  _195
REMARK   80  A    between atoms: _194  and  _197
REMARK   81  A    between atoms: _197  and  _198
REMARK   82  A    between atoms: _202  and  _203
REMARK   83  A    between atoms: _208  and  _210
REMARK   84  A    between atoms: _210  and  _211
REMARK   85  A    between atoms: _210  and  _213
REMARK   86  A    between atoms: _216  and  _218
REMARK   87  A    between atoms: _218  and  _219
REMARK   88  A    between atoms: _218  and  _221
REMARK   89  A    between atoms: _221  and  _222
REMARK   90  A    between atoms: _227  and  _229
REMARK   91  A    between atoms: _229  and  _230
REMARK   92  A    between atoms: _229  and  _232
REMARK   93  A    between atoms: _232  and  _233
REMARK   94  A    between atoms: _236  and  _238
REMARK   95  A    between atoms: _238  and  _239
REMARK   96  A    between atoms: _238  and  _241
REMARK   97  A    between atoms: _241  and  _242
REMARK   98  A    between atoms: _245  and  _247
REMARK   99  A    between atoms: _247  and  _248
REMARK  100  A    between atoms: _250  and  _252
REMARK  101  A    between atoms: _252  and  _253
REMARK  102  A    between atoms: _252  and  _255
REMARK  103  A    between atoms: _255  and  _256
REMARK  104  A    between atoms: _256  and  _257
REMARK  105  A    between atoms: _257  and  _258
REMARK  106  A    between atoms: _267  and  _269
REMARK  107  A    between atoms: _269  and  _270
REMARK  108  A    between atoms: _269  and  _272
REMARK  109  A    between atoms: _272  and  _273
REMARK  110  A    between atoms: _278  and  _280
REMARK  111  A    between atoms: _280  and  _281
REMARK  112  A    between atoms: _280  and  _283
REMARK  113  A    between atoms: _283  and  _284
REMARK  114  A    between atoms: _284  and  _285
REMARK  115  A    between atoms: _285  and  _286
REMARK  116  A    between atoms: _296  and  _297
REMARK  117  A    between atoms: _302  and  _304
REMARK  118  A    between atoms: _304  and  _305
REMARK  119  A    between atoms: _304  and  _307
REMARK  120  A    between atoms: _307  and  _308
REMARK  121  A    between atoms: _311  and  _313
REMARK  122  A    between atoms: _313  and  _314
REMARK  123  A    between atoms: _313  and  _316
REMARK  124  A    between atoms: _316  and  _317
REMARK  125  A    between atoms: _320  and  _322
REMARK  126  A    between atoms: _322  and  _323
REMARK  127  A    between atoms: _322  and  _325
REMARK  128  A    between atoms: _325  and  _326
REMARK  129  A    between atoms: _329  and  _331
REMARK  130  A    between atoms: _331  and  _332
REMARK  131  A    between atoms: _331  and  _334
REMARK  132  A    between atoms: _334  and  _335
REMARK  133  A    between atoms: _338  and  _340
REMARK  134  A    between atoms: _340  and  _341
REMARK  135  A    between atoms: _340  and  _343
REMARK  136  A    between atoms: _343  and  _344
REMARK  137  A    between atoms: _347  and  _349
REMARK  138  A    between atoms: _349  and  _350
REMARK  139  A    between atoms: _352  and  _354
REMARK  140  A    between atoms: _354  and  _355
REMARK  141  A    between atoms: _358  and  _360
REMARK  142  A    between atoms: _360  and  _361
REMARK  143  A    between atoms: _360  and  _363
REMARK  144  A    between atoms: _363  and  _364
REMARK  145  A    between atoms: _367  and  _369
REMARK  146  A    between atoms: _369  and  _370
REMARK  147  A    between atoms: _369  and  _372
REMARK  148  A    between atoms: _372  and  _373
REMARK  149  A    between atoms: _376  and  _378
REMARK  150  A    between atoms: _378  and  _379
REMARK  151  A    between atoms: _378  and  _381
REMARK  152  A    between atoms: _381  and  _382
REMARK  153  A    between atoms: _385  and  _387
REMARK  154  A    between atoms: _387  and  _388
REMARK  155  A    between atoms: _387  and  _390
REMARK  156  A    between atoms: _393  and  _395
REMARK  157  A    between atoms: _395  and  _396
REMARK  158  A    between atoms: _395  and  _398
REMARK  159  A    between atoms: _398  and  _399
REMARK  160  A    between atoms: _399  and  _400
REMARK  161  A    between atoms: _400  and  _401
REMARK  162  A    between atoms: _401  and  _402
REMARK  163  A    between atoms: _406  and  _408
REMARK  164  A    between atoms: _408  and  _409
REMARK  165  A    between atoms: _408  and  _411
REMARK  166  A    between atoms: _411  and  _412
REMARK  167  A    between atoms: _412  and  _413
REMARK  168  A    between atoms: _415  and  _417
REMARK  169  A    between atoms: _417  and  _418
REMARK  170  A    between atoms: _417  and  _420
REMARK  171  A    between atoms: _420  and  _421
REMARK  172  A    between atoms: _424  and  _426
REMARK  173  A    between atoms: _426  and  _427
REMARK  174  A    between atoms: _429  and  _431
REMARK  175  A    between atoms: _431  and  _432
REMARK  176  A    between atoms: _434  and  _436
REMARK  177  A    between atoms: _436  and  _437
REMARK  178  A    between atoms: _436  and  _439
REMARK  179  A    between atoms: _439  and  _440
REMARK  180  A    between atoms: _443  and  _445
REMARK  181  A    between atoms: _445  and  _446
REMARK  182  A    between atoms: _448  and  _450
REMARK  183  A    between atoms: _450  and  _451
REMARK  184  A    between atoms: _453  and  _455
REMARK  185  A    between atoms: _455  and  _456
REMARK  186  A    between atoms: _455  and  _458
REMARK  187  A    between atoms: _458  and  _459
REMARK  188  A    between atoms: _465  and  _467
REMARK  189  A    between atoms: _467  and  _468
REMARK  190  A    between atoms: _467  and  _470
REMARK  191  A    between atoms: _470  and  _471
REMARK  192  A    between atoms: _474  and  _476
REMARK  193  A    between atoms: _476  and  _477
REMARK  194  A    between atoms: _476  and  _479
REMARK  195  A    between atoms: _482  and  _484
REMARK  196  A    between atoms: _484  and  _485
REMARK  197  A    between atoms: _484  and  _487
REMARK  198  A    between atoms: _487  and  _488
REMARK  199  A    between atoms: _491  and  _493
REMARK  200  A    between atoms: _493  and  _494
REMARK  201  A    between atoms: _493  and  _496
REMARK  202  A    between atoms: _496  and  _497
REMARK  203  A    between atoms: _501  and  _502
REMARK  204  A    between atoms: _507  and  _509
REMARK  205  A    between atoms: _509  and  _510
REMARK  206  A    between atoms: _509  and  _512
REMARK  207  A    between atoms: _515  and  _517
REMARK  208  A    between atoms: _517  and  _518
REMARK  209  A    between atoms: _517  and  _520
REMARK  210  A    between atoms: _520  and  _521
REMARK  211  A    between atoms: _526  and  _528
REMARK  212  A    between atoms: _528  and  _529
REMARK  213  A    between atoms: _528  and  _531
REMARK  214  A    between atoms: _531  and  _532
REMARK  215  A    between atoms: _535  and  _537
REMARK  216  A    between atoms: _537  and  _538
REMARK  217  A    between atoms: _537  and  _540
REMARK  218  A    between atoms: _540  and  _541
REMARK  219  A    between atoms: _544  and  _546
REMARK  220  A    between atoms: _546  and  _547
REMARK  221  A    between atoms: _549  and  _551
REMARK  222  A    between atoms: _551  and  _552
REMARK  223  A    between atoms: _551  and  _554
REMARK  224  A    between atoms: _554  and  _555
REMARK  225  A    between atoms: _555  and  _556
REMARK  226  A    between atoms: _556  and  _557
REMARK  227  A    between atoms: _566  and  _568
REMARK  228  A    between atoms: _568  and  _569
REMARK  229  A    between atoms: _568  and  _571
REMARK  230  A    between atoms: _571  and  _572
REMARK                            x       y       z     vdW  Elec       q    Type
REMARK                         _______ _______ _______ _____ _____    ______ ____
ROOT
ATOM      1  C   ILE A   4      16.857  32.938   8.347  0.00  0.00    +0.241 C 
ATOM      2  N   GLY A   5      17.918  33.677   8.017  0.00  0.00    -0.295 N 
ATOM      3  H   GLY A   5      18.847  33.435   8.418  0.00  0.00    +0.150 HD
ATOM      4  O   ILE A   4      15.757  33.066   7.809  0.00  0.00    -0.273 OA
ENDROOT
BRANCH   2   5
ATOM      5  CA  GLY A   5      17.812  34.815   7.109  0.00  0.00    +0.176 C 
BRANCH   5   6
ATOM      6  C   GLY A   5      18.416  34.621   5.734  0.00  0.00    +0.243 C 
ATOM      7  N   GLY A   6      18.798  33.393   5.405  0.00  0.00    -0.295 N 
ATOM      8  H   GLY A   6      18.632  32.618   6.078  0.00  0.00    +0.150 HD
ATOM      9  O   GLY A   5      18.472  35.569   4.947  0.00  0.00    -0.273 OA
BRANCH   7  10
ATOM     10  CA  GLY A   6      19.444  33.094   4.130  0.00  0.00    +0.176 C 
BRANCH  10  11
ATOM     11  C   GLY A   6      20.811  32.460   4.275  0.00  0.00    +0.243 C 
ATOM     12  O   GLY A   6      21.132  31.924   5.340  0.00  0.00    -0.273 OA
ATOM     13  N   PHE A   7      21.609  32.534   3.216  0.00  0.00    -0.297 N 
ATOM     14  H   PHE A   7      21.311  33.125   2.414  0.00  0.00    +0.150 HD
BRANCH  13  15
ATOM     15  CA  PHE A   7      22.876  31.832   3.120  0.00  0.00    +0.153 C 
BRANCH  15  16
ATOM     16  C   PHE A   7      24.050  32.786   3.207  0.00  0.00    +0.241 C 
ATOM     17  N   ILE A   8      25.131  32.271   3.786  0.00  0.00    -0.298 N 
ATOM     18  H   ILE A   8      25.062  31.324   4.211  0.00  0.00    +0.150 HD
ATOM     19  O   PHE A   7      23.964  33.934   2.769  0.00  0.00    -0.273 OA
BRANCH  17  20
ATOM     20  CA  ILE A   8      26.400  32.967   3.853  0.00  0.00    +0.137 C 
BRANCH  20  21
ATOM     21  C   ILE A   8      27.512  32.057   3.346  0.00  0.00    +0.227 C 
ATOM     22  O   ILE A   8      27.404  30.828   3.342  0.00  0.00    -0.286 OA
ENDBRANCH  20  21
BRANCH  20  23
ATOM     23  CB  ILE A   8      26.731  33.450   5.283  0.00  0.00    +0.026 C 
ATOM     24  CG2 ILE A   8      25.641  34.428   5.768  0.00  0.00    +0.002 C 
BRANCH  23  25
ATOM     25  CG1 ILE A   8      26.910  32.278   6.258  0.00  0.00    +0.002 C 
ATOM     26  CD1 ILE A   8      27.450  32.675   7.635  0.00  0.00    +0.000 C 
ENDBRANCH  23  25
ENDBRANCH  20  23
ENDBRANCH  17  20
ENDBRANCH  15  16
BRANCH  15  27
ATOM     27  CB  PHE A   7      22.917  31.010   1.819  0.00  0.00    +0.055 C 
BRANCH  27  28
ATOM     28  CG  PHE A   7      22.160  29.721   1.931  0.00  0.00    -0.020 A 
ATOM     29  CD2 PHE A   7      22.838  28.522   2.064  0.00  0.00    -0.004 A 
ATOM     30  CE2 PHE A   7      22.137  27.327   2.213  0.00  0.00    -0.000 A 
ATOM     31  CZ  PHE A   7      20.761  27.343   2.250  0.00  0.00    -0.000 A 
ATOM     32  CE1 PHE A   7      20.077  28.531   2.145  0.00  0.00    -0.000 A 
ATOM     33  CD1 PHE A   7      20.777  29.719   1.985  0.00  0.00    -0.004 A 
ENDBRANCH  27  28
ENDBRANCH  15  27
ENDBRANCH  13  15
ENDBRANCH  10  11
ENDBRANCH   7  10
ENDBRANCH   5   6
ENDBRANCH   2   5
BRANCH   1  34
ATOM     34  CA  ILE A   4      17.056  31.889   9.427  0.00  0.00    +0.149 C 
BRANCH  34  36
ATOM     35  C   GLY A   3      18.929  30.765   8.437  0.00  0.00    +0.243 C 
ATOM     36  N   ILE A   4      18.420  31.424   9.466  0.00  0.00    -0.297 N 
ATOM     37  H   ILE A   4      19.006  31.607  10.305  0.00  0.00    +0.150 HD
ATOM     38  O   GLY A   3      18.313  30.642   7.374  0.00  0.00    -0.273 OA
BRANCH  35  39
ATOM     39  CA  GLY A   3      20.305  30.160   8.639  0.00  0.00    +0.176 C 
BRANCH  39  42
ATOM     40  C   GLY A   2      21.491  28.784   7.016  0.00  0.00    +0.243 C 
ATOM     41  O   GLY A   2      21.575  27.830   7.778  0.00  0.00    -0.273 OA
ATOM     42  N   GLY A   3      20.893  29.919   7.334  0.00  0.00    -0.295 N 
ATOM     43  H   GLY A   3      20.842  30.672   6.618  0.00  0.00    +0.150 HD
BRANCH  40  44
ATOM     44  CA  GLY A   2      22.013  28.706   5.601  0.00  0.00    +0.176 C 
BRANCH  44  46
ATOM     45  C   ILE A   1      24.406  28.470   5.135  0.00  0.00    +0.238 C 
ATOM     46  N   GLY A   2      23.250  27.933   5.511  0.00  0.00    -0.296 N 
ATOM     47  H   GLY A   2      23.225  26.921   5.751  0.00  0.00    +0.150 HD
ATOM     48  O   ILE A   1      24.575  29.676   4.940  0.00  0.00    -0.274 OA
BRANCH  45  49
ATOM     49  CA  ILE A   1      25.572  27.494   5.051  0.00  0.00    +0.145 C 
BRANCH  49  50
ATOM     50  N   ILE A   1      26.586  28.010   4.145  0.00  0.00    -0.238 NA
ATOM     51  H   ILE A   1      26.860  29.012   4.196  0.00  0.00    +0.142 HD
ENDBRANCH  49  50
BRANCH  49  52
ATOM     52  CB  ILE A   1      26.119  27.246   6.464  0.00  0.00    +0.025 C 
ATOM     53  CG2 ILE A   1      27.177  26.132   6.455  0.00  0.00    +0.002 C 
BRANCH  52  54
ATOM     54  CG1 ILE A   1      26.658  28.532   7.091  0.00  0.00    +0.002 C 
ATOM     55  CD1 ILE A   1      26.967  28.359   8.553  0.00  0.00    +0.000 C 
ENDBRANCH  52  54
ENDBRANCH  49  52
ENDBRANCH  45  49
ENDBRANCH  44  46
ENDBRANCH  40  44
ENDBRANCH  39  42
ENDBRANCH  35  39
ENDBRANCH  34  36
BRANCH  34  56
ATOM     56  CB  ILE A   4      16.607  32.426  10.808  0.00  0.00    +0.027 C 
ATOM     57  CG2 ILE A   4      17.036  33.879  10.982  0.00  0.00    +0.002 C 
BRANCH  56  58
ATOM     58  CG1 ILE A   4      15.098  32.276  10.967  0.00  0.00    +0.002 C 
ATOM     59  CD1 ILE A   4      14.606  32.643  12.356  0.00  0.00    +0.000 C 
ENDBRANCH  56  58
ENDBRANCH  34  56
ENDBRANCH   1  34
TORSDOF 24
REMARK  Name = ../refined-set-2016/3o9i/3o9i_pocket.pdb
REMARK  230 active torsions:
REMARK  status: ('A' for Active; 'I' for Inactive)
REMARK    1  A    between atoms: _1  and  _3
REMARK    2  A    between atoms: _3  and  _4
REMARK    3  A    between atoms: _3  and  _6
REMARK    4  A    between atoms: _6  and  _7
REMARK    5  A    between atoms: _7  and  _8
REMARK    6  A    between atoms: _8  and  _9
REMARK    7  A    between atoms: _18  and  _20
REMARK    8  A    between atoms: _20  and  _21
REMARK    9  A    between atoms: _20  and  _23
REMARK   10  A    between atoms: _23  and  _24
REMARK   11  A    between atoms: _27  and  _29
REMARK   12  A    between atoms: _29  and  _30
REMARK   13  A    between atoms: _29  and  _32
REMARK   14  A    between atoms: _32  and  _33
REMARK   15  A    between atoms: _36  and  _38
REMARK   16  A    between atoms: _38  and  _39
REMARK   17  A    between atoms: _38  and  _41
REMARK   18  A    between atoms: _41  and  _42
REMARK   19  A    between atoms: _45  and  _47
REMARK   20  A    between atoms: _47  and  _48
REMARK   21  A    between atoms: _47  and  _50
REMARK   22  A    between atoms: _50  and  _51
REMARK   23  A    between atoms: _54  and  _56
REMARK   24  A    between atoms: _56  and  _57
REMARK   25  A    between atoms: _56  and  _59
REMARK   26  A    between atoms: _59  and  _60
REMARK   27  A    between atoms: _63  and  _65
REMARK   28  A    between atoms: _65  and  _66
REMARK   29  A    between atoms: _68  and  _70
REMARK   30  A    between atoms: _70  and  _71
REMARK   31  A    between atoms: _74  and  _76
REMARK   32  A    between atoms: _76  and  _77
REMARK   33  A    between atoms: _76  and  _79
REMARK   34  A    between atoms: _79  and  _80
REMARK   35  A    between atoms: _83  and  _85
REMARK   36  A    between atoms: _85  and  _86
REMARK   37  A    between atoms: _85  and  _88
REMARK   38  A    between atoms: _88  and  _89
REMARK   39  A    between atoms: _92  and  _94
REMARK   40  A    between atoms: _94  and  _95
REMARK   41  A    between atoms: _94  and  _97
REMARK   42  A    between atoms: _97  and  _98
REMARK   43  A    between atoms: _101  and  _103
REMARK   44  A    between atoms: _103  and  _104
REMARK   45  A    between atoms: _103  and  _106
REMARK   46  A    between atoms: _109  and  _111
REMARK   47  A    between atoms: _111  and  _112
REMARK   48  A    between atoms: _111  and  _114
REMARK   49  A    between atoms: _114  and  _115
REMARK   50  A    between atoms: _118  and  _120
REMARK   51  A    between atoms: _120  and  _121
REMARK   52  A    between atoms: _123  and  _125
REMARK   53  A    between atoms: _125  and  _126
REMARK   54  A    between atoms: _128  and  _130
REMARK   55  A    between atoms: _130  and  _131
REMARK   56  A    between atoms: _130  and  _133
REMARK   57  A    between atoms: _133  and  _134
REMARK   58  A    between atoms: _137  and  _139
REMARK   59  A    between atoms: _139  and  _140
REMARK   60  A    between atoms: _142  and  _144
REMARK   61  A    between atoms: _144  and  _145
REMARK   62  A    between atoms: _147  and  _149
REMARK   63  A    between atoms: _149  and  _150
REMARK   64  A    between atoms: _149  and  _152
REMARK   65  A    between atoms: _152  and  _153
REMARK   66  A    between atoms: _159  and  _161
REMARK   67  A    between atoms: _161  and  _162
REMARK   68  A    between atoms: _161  and  _164
REMARK   69  A    between atoms: _164  and  _165
REMARK   70  A    between atoms: _168  and  _170
REMARK   71  A    between atoms: _170  and  _171
REMARK   72  A    between atoms: _170  and  _173
REMARK   73  A    between atoms: _176  and  _178
REMARK   74  A    between atoms: _178  and  _179
REMARK   75  A    between atoms: _178  and  _181
REMARK   76  A    between atoms: _181  and  _182
REMARK   77  A    between atoms: _186  and  _187
REMARK   78  A    between atoms: _192  and  _194
REMARK   79  A    between atoms: _194  and  _195
REMARK   80  A    between atoms: _194  and  _197
REMARK   81  A    between atoms: _197  and  _198
REMARK   82  A    between atoms: _202  and  _203
REMARK   83  A    between atoms: _208  and  _210
REMARK   84  A    between atoms: _210  and  _211
REMARK   85  A    between atoms: _210  and  _213
REMARK   86  A    between atoms: _216  and  _218
REMARK   87  A    between atoms: _218  and  _219
REMARK   88  A    between atoms: _218  and  _221
REMARK   89  A    between atoms: _221  and  _222
REMARK   90  A    between atoms: _227  and  _229
REMARK   91  A    between atoms: _229  and  _230
REMARK   92  A    between atoms: _229  and  _232
REMARK   93  A    between atoms: _232  and  _233
REMARK   94  A    between atoms: _236  and  _238
REMARK   95  A    between atoms: _238  and  _239
REMARK   96  A    between atoms: _238  and  _241
REMARK   97  A    between atoms: _241  and  _242
REMARK   98  A    between atoms: _245  and  _247
REMARK   99  A    between atoms: _247  and  _248
REMARK  100  A    between atoms: _250  and  _252
REMARK  101  A    between atoms: _252  and  _253
REMARK  102  A    between atoms: _252  and  _255
REMARK  103  A    between atoms: _255  and  _256
REMARK  104  A    between atoms: _256  and  _257
REMARK  105  A    between atoms: _257  and  _258
REMARK  106  A    between atoms: _267  and  _269
REMARK  107  A    between atoms: _269  and  _270
REMARK  108  A    between atoms: _269  and  _272
REMARK  109  A    between atoms: _272  and  _273
REMARK  110  A    between atoms: _278  and  _280
REMARK  111  A    between atoms: _280  and  _281
REMARK  112  A    between atoms: _280  and  _283
REMARK  113  A    between atoms: _283  and  _284
REMARK  114  A    between atoms: _284  and  _285
REMARK  115  A    between atoms: _285  and  _286
REMARK  116  A    between atoms: _296  and  _297
REMARK  117  A    between atoms: _302  and  _304
REMARK  118  A    between atoms: _304  and  _305
REMARK  119  A    between atoms: _304  and  _307
REMARK  120  A    between atoms: _307  and  _308
REMARK  121  A    between atoms: _311  and  _313
REMARK  122  A    between atoms: _313  and  _314
REMARK  123  A    between atoms: _313  and  _316
REMARK  124  A    between atoms: _316  and  _317
REMARK  125  A    between atoms: _320  and  _322
REMARK  126  A    between atoms: _322  and  _323
REMARK  127  A    between atoms: _322  and  _325
REMARK  128  A    between atoms: _325  and  _326
REMARK  129  A    between atoms: _329  and  _331
REMARK  130  A    between atoms: _331  and  _332
REMARK  131  A    between atoms: _331  and  _334
REMARK  132  A    between atoms: _334  and  _335
REMARK  133  A    between atoms: _338  and  _340
REMARK  134  A    between atoms: _340  and  _341
REMARK  135  A    between atoms: _340  and  _343
REMARK  136  A    between atoms: _343  and  _344
REMARK  137  A    between atoms: _347  and  _349
REMARK  138  A    between atoms: _349  and  _350
REMARK  139  A    between atoms: _352  and  _354
REMARK  140  A    between atoms: _354  and  _355
REMARK  141  A    between atoms: _358  and  _360
REMARK  142  A    between atoms: _360  and  _361
REMARK  143  A    between atoms: _360  and  _363
REMARK  144  A    between atoms: _363  and  _364
REMARK  145  A    between atoms: _367  and  _369
REMARK  146  A    between atoms: _369  and  _370
REMARK  147  A    between atoms: _369  and  _372
REMARK  148  A    between atoms: _372  and  _373
REMARK  149  A    between atoms: _376  and  _378
REMARK  150  A    between atoms: _378  and  _379
REMARK  151  A    between atoms: _378  and  _381
REMARK  152  A    between atoms: _381  and  _382
REMARK  153  A    between atoms: _385  and  _387
REMARK  154  A    between atoms: _387  and  _388
REMARK  155  A    between atoms: _387  and  _390
REMARK  156  A    between atoms: _393  and  _395
REMARK  157  A    between atoms: _395  and  _396
REMARK  158  A    between atoms: _395  and  _398
REMARK  159  A    between atoms: _398  and  _399
REMARK  160  A    between atoms: _399  and  _400
REMARK  161  A    between atoms: _400  and  _401
REMARK  162  A    between atoms: _401  and  _402
REMARK  163  A    between atoms: _406  and  _408
REMARK  164  A    between atoms: _408  and  _409
REMARK  165  A    between atoms: _408  and  _411
REMARK  166  A    between atoms: _411  and  _412
REMARK  167  A    between atoms: _412  and  _413
REMARK  168  A    between atoms: _415  and  _417
REMARK  169  A    between atoms: _417  and  _418
REMARK  170  A    between atoms: _417  and  _420
REMARK  171  A    between atoms: _420  and  _421
REMARK  172  A    between atoms: _424  and  _426
REMARK  173  A    between atoms: _426  and  _427
REMARK  174  A    between atoms: _429  and  _431
REMARK  175  A    between atoms: _431  and  _432
REMARK  176  A    between atoms: _434  and  _436
REMARK  177  A    between atoms: _436  and  _437
REMARK  178  A    between atoms: _436  and  _439
REMARK  179  A    between atoms: _439  and  _440
REMARK  180  A    between atoms: _443  and  _445
REMARK  181  A    between atoms: _445  and  _446
REMARK  182  A    between atoms: _448  and  _450
REMARK  183  A    between atoms: _450  and  _451
REMARK  184  A    between atoms: _453  and  _455
REMARK  185  A    between atoms: _455  and  _456
REMARK  186  A    between atoms: _455  and  _458
REMARK  187  A    between atoms: _458  and  _459
REMARK  188  A    between atoms: _465  and  _467
REMARK  189  A    between atoms: _467  and  _468
REMARK  190  A    between atoms: _467  and  _470
REMARK  191  A    between atoms: _470  and  _471
REMARK  192  A    between atoms: _474  and  _476
REMARK  193  A    between atoms: _476  and  _477
REMARK  194  A    between atoms: _476  and  _479
REMARK  195  A    between atoms: _482  and  _484
REMARK  196  A    between atoms: _484  and  _485
REMARK  197  A    between atoms: _484  and  _487
REMARK  198  A    between atoms: _487  and  _488
REMARK  199  A    between atoms: _491  and  _493
REMARK  200  A    between atoms: _493  and  _494
REMARK  201  A    between atoms: _493  and  _496
REMARK  202  A    between atoms: _496  and  _497
REMARK  203  A    between atoms: _501  and  _502
REMARK  204  A    between atoms: _507  and  _509
REMARK  205  A    between atoms: _509  and  _510
REMARK  206  A    between atoms: _509  and  _512
REMARK  207  A    between atoms: _515  and  _517
REMARK  208  A    between atoms: _517  and  _518
REMARK  209  A    between atoms: _517  and  _520
REMARK  210  A    between atoms: _520  and  _521
REMARK  211  A    between atoms: _526  and  _528
REMARK  212  A    between atoms: _528  and  _529
REMARK  213  A    between atoms: _528  and  _531
REMARK  214  A    between atoms: _531  and  _532
REMARK  215  A    between atoms: _535  and  _537
REMARK  216  A    between atoms: _537  and  _538
REMARK  217  A    between atoms: _537  and  _540
REMARK  218  A    between atoms: _540  and  _541
REMARK  219  A    between atoms: _544  and  _546
REMARK  220  A    between atoms: _546  and  _547
REMARK  221  A    between atoms: _549  and  _551
REMARK  222  A    between atoms: _551  and  _552
REMARK  223  A    between atoms: _551  and  _554
REMARK  224  A    between atoms: _554  and  _555
REMARK  225  A    between atoms: _555  and  _556
REMARK  226  A    between atoms: _556  and  _557
REMARK  227  A    between atoms: _566  and  _568
REMARK  228  A    between atoms: _568  and  _569
REMARK  229  A    between atoms: _568  and  _571
REMARK  230  A    between atoms: _571  and  _572
REMARK                            x       y       z     vdW  Elec       q    Type
REMARK                         _______ _______ _______ _____ _____    ______ ____
ROOT
ATOM      1  CA  VAL A   1      32.171  30.515   5.268  0.00  0.00    +0.133 C 
ENDROOT
BRANCH   1   2
ATOM      2  CB  VAL A   1      31.505  29.681   6.394  0.00  0.00    +0.023 C 
ATOM      3  CG2 VAL A   1      30.333  30.443   6.992  0.00  0.00    +0.002 C 
ATOM      4  CG1 VAL A   1      31.068  28.326   5.881  0.00  0.00    +0.002 C 
ENDBRANCH   1   2
BRANCH   1   5
ATOM      5  N   VAL A   1      31.257  30.738   4.151  0.00  0.00    -0.239 NA
ATOM      6  H   VAL A   1      31.042  29.948   3.509  0.00  0.00    +0.142 HD
ENDBRANCH   1   5
BRANCH   1   7
ATOM      7  C   VAL A   1      33.449  29.816   4.812  0.00  0.00    +0.224 C 
ATOM      8  O   VAL A   1      33.509  29.247   3.728  0.00  0.00    -0.287 OA
ENDBRANCH   1   7
TORSDOF 3
REMARK  Name = ../refined-set-2016/3o9i/3o9i_pocket.pdb
REMARK  230 active torsions:
REMARK  status: ('A' for Active; 'I' for Inactive)
REMARK    1  A    between atoms: _1  and  _3
REMARK    2  A    between atoms: _3  and  _4
REMARK    3  A    between atoms: _3  and  _6
REMARK    4  A    between atoms: _6  and  _7
REMARK    5  A    between atoms: _7  and  _8
REMARK    6  A    between atoms: _8  and  _9
REMARK    7  A    between atoms: _18  and  _20
REMARK    8  A    between atoms: _20  and  _21
REMARK    9  A    between atoms: _20  and  _23
REMARK   10  A    between atoms: _23  and  _24
REMARK   11  A    between atoms: _27  and  _29
REMARK   12  A    between atoms: _29  and  _30
REMARK   13  A    between atoms: _29  and  _32
REMARK   14  A    between atoms: _32  and  _33
REMARK   15  A    between atoms: _36  and  _38
REMARK   16  A    between atoms: _38  and  _39
REMARK   17  A    between atoms: _38  and  _41
REMARK   18  A    between atoms: _41  and  _42
REMARK   19  A    between atoms: _45  and  _47
REMARK   20  A    between atoms: _47  and  _48
REMARK   21  A    between atoms: _47  and  _50
REMARK   22  A    between atoms: _50  and  _51
REMARK   23  A    between atoms: _54  and  _56
REMARK   24  A    between atoms: _56  and  _57
REMARK   25  A    between atoms: _56  and  _59
REMARK   26  A    between atoms: _59  and  _60
REMARK   27  A    between atoms: _63  and  _65
REMARK   28  A    between atoms: _65  and  _66
REMARK   29  A    between atoms: _68  and  _70
REMARK   30  A    between atoms: _70  and  _71
REMARK   31  A    between atoms: _74  and  _76
REMARK   32  A    between atoms: _76  and  _77
REMARK   33  A    between atoms: _76  and  _79
REMARK   34  A    between atoms: _79  and  _80
REMARK   35  A    between atoms: _83  and  _85
REMARK   36  A    between atoms: _85  and  _86
REMARK   37  A    between atoms: _85  and  _88
REMARK   38  A    between atoms: _88  and  _89
REMARK   39  A    between atoms: _92  and  _94
REMARK   40  A    between atoms: _94  and  _95
REMARK   41  A    between atoms: _94  and  _97
REMARK   42  A    between atoms: _97  and  _98
REMARK   43  A    between atoms: _101  and  _103
REMARK   44  A    between atoms: _103  and  _104
REMARK   45  A    between atoms: _103  and  _106
REMARK   46  A    between atoms: _109  and  _111
REMARK   47  A    between atoms: _111  and  _112
REMARK   48  A    between atoms: _111  and  _114
REMARK   49  A    between atoms: _114  and  _115
REMARK   50  A    between atoms: _118  and  _120
REMARK   51  A    between atoms: _120  and  _121
REMARK   52  A    between atoms: _123  and  _125
REMARK   53  A    between atoms: _125  and  _126
REMARK   54  A    between atoms: _128  and  _130
REMARK   55  A    between atoms: _130  and  _131
REMARK   56  A    between atoms: _130  and  _133
REMARK   57  A    between atoms: _133  and  _134
REMARK   58  A    between atoms: _137  and  _139
REMARK   59  A    between atoms: _139  and  _140
REMARK   60  A    between atoms: _142  and  _144
REMARK   61  A    between atoms: _144  and  _145
REMARK   62  A    between atoms: _147  and  _149
REMARK   63  A    between atoms: _149  and  _150
REMARK   64  A    between atoms: _149  and  _152
REMARK   65  A    between atoms: _152  and  _153
REMARK   66  A    between atoms: _159  and  _161
REMARK   67  A    between atoms: _161  and  _162
REMARK   68  A    between atoms: _161  and  _164
REMARK   69  A    between atoms: _164  and  _165
REMARK   70  A    between atoms: _168  and  _170
REMARK   71  A    between atoms: _170  and  _171
REMARK   72  A    between atoms: _170  and  _173
REMARK   73  A    between atoms: _176  and  _178
REMARK   74  A    between atoms: _178  and  _179
REMARK   75  A    between atoms: _178  and  _181
REMARK   76  A    between atoms: _181  and  _182
REMARK   77  A    between atoms: _186  and  _187
REMARK   78  A    between atoms: _192  and  _194
REMARK   79  A    between atoms: _194  and  _195
REMARK   80  A    between atoms: _194  and  _197
REMARK   81  A    between atoms: _197  and  _198
REMARK   82  A    between atoms: _202  and  _203
REMARK   83  A    between atoms: _208  and  _210
REMARK   84  A    between atoms: _210  and  _211
REMARK   85  A    between atoms: _210  and  _213
REMARK   86  A    between atoms: _216  and  _218
REMARK   87  A    between atoms: _218  and  _219
REMARK   88  A    between atoms: _218  and  _221
REMARK   89  A    between atoms: _221  and  _222
REMARK   90  A    between atoms: _227  and  _229
REMARK   91  A    between atoms: _229  and  _230
REMARK   92  A    between atoms: _229  and  _232
REMARK   93  A    between atoms: _232  and  _233
REMARK   94  A    between atoms: _236  and  _238
REMARK   95  A    between atoms: _238  and  _239
REMARK   96  A    between atoms: _238  and  _241
REMARK   97  A    between atoms: _241  and  _242
REMARK   98  A    between atoms: _245  and  _247
REMARK   99  A    between atoms: _247  and  _248
REMARK  100  A    between atoms: _250  and  _252
REMARK  101  A    between atoms: _252  and  _253
REMARK  102  A    between atoms: _252  and  _255
REMARK  103  A    between atoms: _255  and  _256
REMARK  104  A    between atoms: _256  and  _257
REMARK  105  A    between atoms: _257  and  _258
REMARK  106  A    between atoms: _267  and  _269
REMARK  107  A    between atoms: _269  and  _270
REMARK  108  A    between atoms: _269  and  _272
REMARK  109  A    between atoms: _272  and  _273
REMARK  110  A    between atoms: _278  and  _280
REMARK  111  A    between atoms: _280  and  _281
REMARK  112  A    between atoms: _280  and  _283
REMARK  113  A    between atoms: _283  and  _284
REMARK  114  A    between atoms: _284  and  _285
REMARK  115  A    between atoms: _285  and  _286
REMARK  116  A    between atoms: _296  and  _297
REMARK  117  A    between atoms: _302  and  _304
REMARK  118  A    between atoms: _304  and  _305
REMARK  119  A    between atoms: _304  and  _307
REMARK  120  A    between atoms: _307  and  _308
REMARK  121  A    between atoms: _311  and  _313
REMARK  122  A    between atoms: _313  and  _314
REMARK  123  A    between atoms: _313  and  _316
REMARK  124  A    between atoms: _316  and  _317
REMARK  125  A    between atoms: _320  and  _322
REMARK  126  A    between atoms: _322  and  _323
REMARK  127  A    between atoms: _322  and  _325
REMARK  128  A    between atoms: _325  and  _326
REMARK  129  A    between atoms: _329  and  _331
REMARK  130  A    between atoms: _331  and  _332
REMARK  131  A    between atoms: _331  and  _334
REMARK  132  A    between atoms: _334  and  _335
REMARK  133  A    between atoms: _338  and  _340
REMARK  134  A    between atoms: _340  and  _341
REMARK  135  A    between atoms: _340  and  _343
REMARK  136  A    between atoms: _343  and  _344
REMARK  137  A    between atoms: _347  and  _349
REMARK  138  A    between atoms: _349  and  _350
REMARK  139  A    between atoms: _352  and  _354
REMARK  140  A    between atoms: _354  and  _355
REMARK  141  A    between atoms: _358  and  _360
REMARK  142  A    between atoms: _360  and  _361
REMARK  143  A    between atoms: _360  and  _363
REMARK  144  A    between atoms: _363  and  _364
REMARK  145  A    between atoms: _367  and  _369
REMARK  146  A    between atoms: _369  and  _370
REMARK  147  A    between atoms: _369  and  _372
REMARK  148  A    between atoms: _372  and  _373
REMARK  149  A    between atoms: _376  and  _378
REMARK  150  A    between atoms: _378  and  _379
REMARK  151  A    between atoms: _378  and  _381
REMARK  152  A    between atoms: _381  and  _382
REMARK  153  A    between atoms: _385  and  _387
REMARK  154  A    between atoms: _387  and  _388
REMARK  155  A    between atoms: _387  and  _390
REMARK  156  A    between atoms: _393  and  _395
REMARK  157  A    between atoms: _395  and  _396
REMARK  158  A    between atoms: _395  and  _398
REMARK  159  A    between atoms: _398  and  _399
REMARK  160  A    between atoms: _399  and  _400
REMARK  161  A    between atoms: _400  and  _401
REMARK  162  A    between atoms: _401  and  _402
REMARK  163  A    between atoms: _406  and  _408
REMARK  164  A    between atoms: _408  and  _409
REMARK  165  A    between atoms: _408  and  _411
REMARK  166  A    between atoms: _411  and  _412
REMARK  167  A    between atoms: _412  and  _413
REMARK  168  A    between atoms: _415  and  _417
REMARK  169  A    between atoms: _417  and  _418
REMARK  170  A    between atoms: _417  and  _420
REMARK  171  A    between atoms: _420  and  _421
REMARK  172  A    between atoms: _424  and  _426
REMARK  173  A    between atoms: _426  and  _427
REMARK  174  A    between atoms: _429  and  _431
REMARK  175  A    between atoms: _431  and  _432
REMARK  176  A    between atoms: _434  and  _436
REMARK  177  A    between atoms: _436  and  _437
REMARK  178  A    between atoms: _436  and  _439
REMARK  179  A    between atoms: _439  and  _440
REMARK  180  A    between atoms: _443  and  _445
REMARK  181  A    between atoms: _445  and  _446
REMARK  182  A    between atoms: _448  and  _450
REMARK  183  A    between atoms: _450  and  _451
REMARK  184  A    between atoms: _453  and  _455
REMARK  185  A    between atoms: _455  and  _456
REMARK  186  A    between atoms: _455  and  _458
REMARK  187  A    between atoms: _458  and  _459
REMARK  188  A    between atoms: _465  and  _467
REMARK  189  A    between atoms: _467  and  _468
REMARK  190  A    between atoms: _467  and  _470
REMARK  191  A    between atoms: _470  and  _471
REMARK  192  A    between atoms: _474  and  _476
REMARK  193  A    between atoms: _476  and  _477
REMARK  194  A    between atoms: _476  and  _479
REMARK  195  A    between atoms: _482  and  _484
REMARK  196  A    between atoms: _484  and  _485
REMARK  197  A    between atoms: _484  and  _487
REMARK  198  A    between atoms: _487  and  _488
REMARK  199  A    between atoms: _491  and  _493
REMARK  200  A    between atoms: _493  and  _494
REMARK  201  A    between atoms: _493  and  _496
REMARK  202  A    between atoms: _496  and  _497
REMARK  203  A    between atoms: _501  and  _502
REMARK  204  A    between atoms: _507  and  _509
REMARK  205  A    between atoms: _509  and  _510
REMARK  206  A    between atoms: _509  and  _512
REMARK  207  A    between atoms: _515  and  _517
REMARK  208  A    between atoms: _517  and  _518
REMARK  209  A    between atoms: _517  and  _520
REMARK  210  A    between atoms: _520  and  _521
REMARK  211  A    between atoms: _526  and  _528
REMARK  212  A    between atoms: _528  and  _529
REMARK  213  A    between atoms: _528  and  _531
REMARK  214  A    between atoms: _531  and  _532
REMARK  215  A    between atoms: _535  and  _537
REMARK  216  A    between atoms: _537  and  _538
REMARK  217  A    between atoms: _537  and  _540
REMARK  218  A    between atoms: _540  and  _541
REMARK  219  A    between atoms: _544  and  _546
REMARK  220  A    between atoms: _546  and  _547
REMARK  221  A    between atoms: _549  and  _551
REMARK  222  A    between atoms: _551  and  _552
REMARK  223  A    between atoms: _551  and  _554
REMARK  224  A    between atoms: _554  and  _555
REMARK  225  A    between atoms: _555  and  _556
REMARK  226  A    between atoms: _556  and  _557
REMARK  227  A    between atoms: _566  and  _568
REMARK  228  A    between atoms: _568  and  _569
REMARK  229  A    between atoms: _568  and  _571
REMARK  230  A    between atoms: _571  and  _572
REMARK                            x       y       z     vdW  Elec       q    Type
REMARK                         _______ _______ _______ _____ _____    ______ ____
ROOT
ATOM      1  CA  LEU A   1      33.252  27.403  10.153  0.00  0.00    +0.133 C 
ENDROOT
BRANCH   1   2
ATOM      2  N   LEU A   1      33.549  26.522  11.271  0.00  0.00    -0.239 NA
ATOM      3  H   LEU A   1      32.817  26.374  11.995  0.00  0.00    +0.142 HD
ENDBRANCH   1   2
BRANCH   1   4
ATOM      4  C   LEU A   1      33.481  28.842  10.599  0.00  0.00    +0.224 C 
ATOM      5  O   LEU A   1      33.115  29.227  11.706  0.00  0.00    -0.287 OA
ENDBRANCH   1   4
BRANCH   1   6
ATOM      6  CB  LEU A   1      31.803  27.219   9.678  0.00  0.00    +0.025 C 
BRANCH   6   7
ATOM      7  CG  LEU A   1      31.405  25.767   9.390  0.00  0.00    +0.002 C 
ATOM      8  CD2 LEU A   1      29.932  25.723   8.988  0.00  0.00    +0.000 C 
ATOM      9  CD1 LEU A   1      32.276  25.115   8.322  0.00  0.00    +0.000 C 
ENDBRANCH   6   7
ENDBRANCH   1   6
TORSDOF 4
REMARK  Name = ../refined-set-2016/3o9i/3o9i_pocket.pdb
REMARK  230 active torsions:
REMARK  status: ('A' for Active; 'I' for Inactive)
REMARK    1  A    between atoms: _1  and  _3
REMARK    2  A    between atoms: _3  and  _4
REMARK    3  A    between atoms: _3  and  _6
REMARK    4  A    between atoms: _6  and  _7
REMARK    5  A    between atoms: _7  and  _8
REMARK    6  A    between atoms: _8  and  _9
REMARK    7  A    between atoms: _18  and  _20
REMARK    8  A    between atoms: _20  and  _21
REMARK    9  A    between atoms: _20  and  _23
REMARK   10  A    between atoms: _23  and  _24
REMARK   11  A    between atoms: _27  and  _29
REMARK   12  A    between atoms: _29  and  _30
REMARK   13  A    between atoms: _29  and  _32
REMARK   14  A    between atoms: _32  and  _33
REMARK   15  A    between atoms: _36  and  _38
REMARK   16  A    between atoms: _38  and  _39
REMARK   17  A    between atoms: _38  and  _41
REMARK   18  A    between atoms: _41  and  _42
REMARK   19  A    between atoms: _45  and  _47
REMARK   20  A    between atoms: _47  and  _48
REMARK   21  A    between atoms: _47  and  _50
REMARK   22  A    between atoms: _50  and  _51
REMARK   23  A    between atoms: _54  and  _56
REMARK   24  A    between atoms: _56  and  _57
REMARK   25  A    between atoms: _56  and  _59
REMARK   26  A    between atoms: _59  and  _60
REMARK   27  A    between atoms: _63  and  _65
REMARK   28  A    between atoms: _65  and  _66
REMARK   29  A    between atoms: _68  and  _70
REMARK   30  A    between atoms: _70  and  _71
REMARK   31  A    between atoms: _74  and  _76
REMARK   32  A    between atoms: _76  and  _77
REMARK   33  A    between atoms: _76  and  _79
REMARK   34  A    between atoms: _79  and  _80
REMARK   35  A    between atoms: _83  and  _85
REMARK   36  A    between atoms: _85  and  _86
REMARK   37  A    between atoms: _85  and  _88
REMARK   38  A    between atoms: _88  and  _89
REMARK   39  A    between atoms: _92  and  _94
REMARK   40  A    between atoms: _94  and  _95
REMARK   41  A    between atoms: _94  and  _97
REMARK   42  A    between atoms: _97  and  _98
REMARK   43  A    between atoms: _101  and  _103
REMARK   44  A    between atoms: _103  and  _104
REMARK   45  A    between atoms: _103  and  _106
REMARK   46  A    between atoms: _109  and  _111
REMARK   47  A    between atoms: _111  and  _112
REMARK   48  A    between atoms: _111  and  _114
REMARK   49  A    between atoms: _114  and  _115
REMARK   50  A    between atoms: _118  and  _120
REMARK   51  A    between atoms: _120  and  _121
REMARK   52  A    between atoms: _123  and  _125
REMARK   53  A    between atoms: _125  and  _126
REMARK   54  A    between atoms: _128  and  _130
REMARK   55  A    between atoms: _130  and  _131
REMARK   56  A    between atoms: _130  and  _133
REMARK   57  A    between atoms: _133  and  _134
REMARK   58  A    between atoms: _137  and  _139
REMARK   59  A    between atoms: _139  and  _140
REMARK   60  A    between atoms: _142  and  _144
REMARK   61  A    between atoms: _144  and  _145
REMARK   62  A    between atoms: _147  and  _149
REMARK   63  A    between atoms: _149  and  _150
REMARK   64  A    between atoms: _149  and  _152
REMARK   65  A    between atoms: _152  and  _153
REMARK   66  A    between atoms: _159  and  _161
REMARK   67  A    between atoms: _161  and  _162
REMARK   68  A    between atoms: _161  and  _164
REMARK   69  A    between atoms: _164  and  _165
REMARK   70  A    between atoms: _168  and  _170
REMARK   71  A    between atoms: _170  and  _171
REMARK   72  A    between atoms: _170  and  _173
REMARK   73  A    between atoms: _176  and  _178
REMARK   74  A    between atoms: _178  and  _179
REMARK   75  A    between atoms: _178  and  _181
REMARK   76  A    between atoms: _181  and  _182
REMARK   77  A    between atoms: _186  and  _187
REMARK   78  A    between atoms: _192  and  _194
REMARK   79  A    between atoms: _194  and  _195
REMARK   80  A    between atoms: _194  and  _197
REMARK   81  A    between atoms: _197  and  _198
REMARK   82  A    between atoms: _202  and  _203
REMARK   83  A    between atoms: _208  and  _210
REMARK   84  A    between atoms: _210  and  _211
REMARK   85  A    between atoms: _210  and  _213
REMARK   86  A    between atoms: _216  and  _218
REMARK   87  A    between atoms: _218  and  _219
REMARK   88  A    between atoms: _218  and  _221
REMARK   89  A    between atoms: _221  and  _222
REMARK   90  A    between atoms: _227  and  _229
REMARK   91  A    between atoms: _229  and  _230
REMARK   92  A    between atoms: _229  and  _232
REMARK   93  A    between atoms: _232  and  _233
REMARK   94  A    between atoms: _236  and  _238
REMARK   95  A    between atoms: _238  and  _239
REMARK   96  A    between atoms: _238  and  _241
REMARK   97  A    between atoms: _241  and  _242
REMARK   98  A    between atoms: _245  and  _247
REMARK   99  A    between atoms: _247  and  _248
REMARK  100  A    between atoms: _250  and  _252
REMARK  101  A    between atoms: _252  and  _253
REMARK  102  A    between atoms: _252  and  _255
REMARK  103  A    between atoms: _255  and  _256
REMARK  104  A    between atoms: _256  and  _257
REMARK  105  A    between atoms: _257  and  _258
REMARK  106  A    between atoms: _267  and  _269
REMARK  107  A    between atoms: _269  and  _270
REMARK  108  A    between atoms: _269  and  _272
REMARK  109  A    between atoms: _272  and  _273
REMARK  110  A    between atoms: _278  and  _280
REMARK  111  A    between atoms: _280  and  _281
REMARK  112  A    between atoms: _280  and  _283
REMARK  113  A    between atoms: _283  and  _284
REMARK  114  A    between atoms: _284  and  _285
REMARK  115  A    between atoms: _285  and  _286
REMARK  116  A    between atoms: _296  and  _297
REMARK  117  A    between atoms: _302  and  _304
REMARK  118  A    between atoms: _304  and  _305
REMARK  119  A    between atoms: _304  and  _307
REMARK  120  A    between atoms: _307  and  _308
REMARK  121  A    between atoms: _311  and  _313
REMARK  122  A    between atoms: _313  and  _314
REMARK  123  A    between atoms: _313  and  _316
REMARK  124  A    between atoms: _316  and  _317
REMARK  125  A    between atoms: _320  and  _322
REMARK  126  A    between atoms: _322  and  _323
REMARK  127  A    between atoms: _322  and  _325
REMARK  128  A    between atoms: _325  and  _326
REMARK  129  A    between atoms: _329  and  _331
REMARK  130  A    between atoms: _331  and  _332
REMARK  131  A    between atoms: _331  and  _334
REMARK  132  A    between atoms: _334  and  _335
REMARK  133  A    between atoms: _338  and  _340
REMARK  134  A    between atoms: _340  and  _341
REMARK  135  A    between atoms: _340  and  _343
REMARK  136  A    between atoms: _343  and  _344
REMARK  137  A    between atoms: _347  and  _349
REMARK  138  A    between atoms: _349  and  _350
REMARK  139  A    between atoms: _352  and  _354
REMARK  140  A    between atoms: _354  and  _355
REMARK  141  A    between atoms: _358  and  _360
REMARK  142  A    between atoms: _360  and  _361
REMARK  143  A    between atoms: _360  and  _363
REMARK  144  A    between atoms: _363  and  _364
REMARK  145  A    between atoms: _367  and  _369
REMARK  146  A    between atoms: _369  and  _370
REMARK  147  A    between atoms: _369  and  _372
REMARK  148  A    between atoms: _372  and  _373
REMARK  149  A    between atoms: _376  and  _378
REMARK  150  A    between atoms: _378  and  _379
REMARK  151  A    between atoms: _378  and  _381
REMARK  152  A    between atoms: _381  and  _382
REMARK  153  A    between atoms: _385  and  _387
REMARK  154  A    between atoms: _387  and  _388
REMARK  155  A    between atoms: _387  and  _390
REMARK  156  A    between atoms: _393  and  _395
REMARK  157  A    between atoms: _395  and  _396
REMARK  158  A    between atoms: _395  and  _398
REMARK  159  A    between atoms: _398  and  _399
REMARK  160  A    between atoms: _399  and  _400
REMARK  161  A    between atoms: _400  and  _401
REMARK  162  A    between atoms: _401  and  _402
REMARK  163  A    between atoms: _406  and  _408
REMARK  164  A    between atoms: _408  and  _409
REMARK  165  A    between atoms: _408  and  _411
REMARK  166  A    between atoms: _411  and  _412
REMARK  167  A    between atoms: _412  and  _413
REMARK  168  A    between atoms: _415  and  _417
REMARK  169  A    between atoms: _417  and  _418
REMARK  170  A    between atoms: _417  and  _420
REMARK  171  A    between atoms: _420  and  _421
REMARK  172  A    between atoms: _424  and  _426
REMARK  173  A    between atoms: _426  and  _427
REMARK  174  A    between atoms: _429  and  _431
REMARK  175  A    between atoms: _431  and  _432
REMARK  176  A    between atoms: _434  and  _436
REMARK  177  A    between atoms: _436  and  _437
REMARK  178  A    between atoms: _436  and  _439
REMARK  179  A    between atoms: _439  and  _440
REMARK  180  A    between atoms: _443  and  _445
REMARK  181  A    between atoms: _445  and  _446
REMARK  182  A    between atoms: _448  and  _450
REMARK  183  A    between atoms: _450  and  _451
REMARK  184  A    between atoms: _453  and  _455
REMARK  185  A    between atoms: _455  and  _456
REMARK  186  A    between atoms: _455  and  _458
REMARK  187  A    between atoms: _458  and  _459
REMARK  188  A    between atoms: _465  and  _467
REMARK  189  A    between atoms: _467  and  _468
REMARK  190  A    between atoms: _467  and  _470
REMARK  191  A    between atoms: _470  and  _471
REMARK  192  A    between atoms: _474  and  _476
REMARK  193  A    between atoms: _476  and  _477
REMARK  194  A    between atoms: _476  and  _479
REMARK  195  A    between atoms: _482  and  _484
REMARK  196  A    between atoms: _484  and  _485
REMARK  197  A    between atoms: _484  and  _487
REMARK  198  A    between atoms: _487  and  _488
REMARK  199  A    between atoms: _491  and  _493
REMARK  200  A    between atoms: _493  and  _494
REMARK  201  A    between atoms: _493  and  _496
REMARK  202  A    between atoms: _496  and  _497
REMARK  203  A    between atoms: _501  and  _502
REMARK  204  A    between atoms: _507  and  _509
REMARK  205  A    between atoms: _509  and  _510
REMARK  206  A    between atoms: _509  and  _512
REMARK  207  A    between atoms: _515  and  _517
REMARK  208  A    between atoms: _517  and  _518
REMARK  209  A    between atoms: _517  and  _520
REMARK  210  A    between atoms: _520  and  _521
REMARK  211  A    between atoms: _526  and  _528
REMARK  212  A    between atoms: _528  and  _529
REMARK  213  A    between atoms: _528  and  _531
REMARK  214  A    between atoms: _531  and  _532
REMARK  215  A    between atoms: _535  and  _537
REMARK  216  A    between atoms: _537  and  _538
REMARK  217  A    between atoms: _537  and  _540
REMARK  218  A    between atoms: _540  and  _541
REMARK  219  A    between atoms: _544  and  _546
REMARK  220  A    between atoms: _546  and  _547
REMARK  221  A    between atoms: _549  and  _551
REMARK  222  A    between atoms: _551  and  _552
REMARK  223  A    between atoms: _551  and  _554
REMARK  224  A    between atoms: _554  and  _555
REMARK  225  A    between atoms: _555  and  _556
REMARK  226  A    between atoms: _556  and  _557
REMARK  227  A    between atoms: _566  and  _568
REMARK  228  A    between atoms: _568  and  _569
REMARK  229  A    between atoms: _568  and  _571
REMARK  230  A    between atoms: _571  and  _572
REMARK                            x       y       z     vdW  Elec       q    Type
REMARK                         _______ _______ _______ _____ _____    ______ ____
ROOT
ATOM      1  CA  ILE A   6      28.083  29.750  18.094  0.00  0.00    +0.149 C 
ENDROOT
BRANCH   1   2
ATOM      2  C   ILE A   6      28.800  28.412  18.123  0.00  0.00    +0.241 C 
ATOM      3  N   ILE A   7      28.598  27.690  19.219  0.00  0.00    -0.297 N 
ATOM      4  H   ILE A   7      28.147  28.145  20.038  0.00  0.00    +0.150 HD
ATOM      5  O   ILE A   6      29.533  28.055  17.198  0.00  0.00    -0.273 OA
BRANCH   3   6
ATOM      6  CA  ILE A   7      28.980  26.293  19.322  0.00  0.00    +0.149 C 
BRANCH   6   7
ATOM      7  C   ILE A   7      27.762  25.437  18.981  0.00  0.00    +0.241 C 
ATOM      8  O   ILE A   7      26.738  25.463  19.665  0.00  0.00    -0.273 OA
ATOM      9  N   GLY A   8      27.870  24.712  17.872  0.00  0.00    -0.295 N 
ATOM     10  H   GLY A   8      28.752  24.765  17.324  0.00  0.00    +0.150 HD
BRANCH   9  11
ATOM     11  CA  GLY A   8      26.800  23.846  17.395  0.00  0.00    +0.176 C 
BRANCH  11  12
ATOM     12  C   GLY A   8      26.960  22.401  17.798  0.00  0.00    +0.243 C 
ATOM     13  O   GLY A   8      27.911  22.013  18.491  0.00  0.00    -0.273 OA
ATOM     14  N   ARG A   9      26.030  21.570  17.341  0.00  0.00    -0.297 N 
ATOM     15  H   ARG A   9      25.351  21.906  16.629  0.00  0.00    +0.150 HD
BRANCH  14  16
ATOM     16  CA  ARG A   9      25.943  20.195  17.819  0.00  0.00    +0.149 C 
BRANCH  16  17
ATOM     17  C   ARG A   9      27.190  19.371  17.533  0.00  0.00    +0.241 C 
ATOM     18  O   ARG A   9      27.501  18.457  18.287  0.00  0.00    -0.273 OA
ATOM     19  N   ASN A  10      27.909  19.691  16.461  0.00  0.00    -0.298 N 
ATOM     20  H   ASN A  10      27.622  20.489  15.859  0.00  0.00    +0.150 HD
BRANCH  19  21
ATOM     21  CA  ASN A  10      29.101  18.918  16.133  0.00  0.00    +0.146 C 
BRANCH  21  22
ATOM     22  C   ASN A  10      30.097  18.922  17.290  0.00  0.00    +0.227 C 
ATOM     23  O   ASN A  10      30.762  17.912  17.527  0.00  0.00    -0.286 OA
ENDBRANCH  21  22
BRANCH  21  24
ATOM     24  CB  ASN A  10      29.735  19.376  14.818  0.00  0.00    +0.112 C 
BRANCH  24  25
ATOM     25  CG  ASN A  10      30.437  20.714  14.936  0.00  0.00    +0.222 C 
ATOM     26  OD1 ASN A  10      29.855  21.696  15.374  0.00  0.00    -0.275 OA
ATOM     27  ND2 ASN A  10      31.702  20.756  14.524  0.00  0.00    -0.329 N 
ATOM     28 HD21 ASN A  10      32.234  21.649  14.568  0.00  0.00    +0.145 HD
ATOM     29 HD22 ASN A  10      32.159  19.896  14.158  0.00  0.00    +0.145 HD
ENDBRANCH  24  25
ENDBRANCH  21  24
ENDBRANCH  19  21
ENDBRANCH  16  17
BRANCH  16  30
ATOM     30  CB  ARG A   9      24.700  19.508  17.260  0.00  0.00    +0.033 C 
BRANCH  30  31
ATOM     31  CG  ARG A   9      23.418  20.092  17.791  0.00  0.00    +0.045 C 
BRANCH  31  32
ATOM     32  CD  ARG A   9      22.178  19.299  17.384  0.00  0.00    +0.174 C 
BRANCH  32  33
ATOM     33  NE  ARG A   9      21.993  19.310  15.937  0.00  0.00    -0.265 N 
ATOM     34  HE  ARG A   9      21.528  20.142  15.520  0.00  0.00    +0.259 HD
ATOM     35  CZ  ARG A   9      22.371  18.342  15.110  0.00  0.00    +0.342 C 
ATOM     36  NH2 ARG A   9      22.901  17.214  15.558  0.00  0.00    -0.292 N 
ATOM     37 HH21 ARG A   9      23.030  17.070  16.580  0.00  0.00    +0.255 HD
ATOM     38 HH22 ARG A   9      23.188  16.472  14.888  0.00  0.00    +0.255 HD
ATOM     39  NH1 ARG A   9      22.197  18.500  13.806  0.00  0.00    -0.292 N 
ATOM     40 HH11 ARG A   9      21.769  19.374  13.441  0.00  0.00    +0.255 HD
ATOM     41 HH12 ARG A   9      22.489  17.750  13.148  0.00  0.00    +0.255 HD
ENDBRANCH  32  33
ENDBRANCH  31  32
ENDBRANCH  30  31
ENDBRANCH  16  30
ENDBRANCH  14  16
ENDBRANCH  11  12
ENDBRANCH   9  11
ENDBRANCH   6   7
BRANCH   6  42
ATOM     42  CB  ILE A   7      29.490  25.950  20.738  0.00  0.00    +0.027 C 
ATOM     43  CG2 ILE A   7      29.968  24.498  20.769  0.00  0.00    +0.002 C 
BRANCH  42  44
ATOM     44  CG1 ILE A   7      30.589  26.928  21.215  0.00  0.00    +0.002 C 
ATOM     45  CD1 ILE A   7      31.772  27.063  20.274  0.00  0.00    +0.000 C 
ENDBRANCH  42  44
ENDBRANCH   6  42
ENDBRANCH   3   6
ENDBRANCH   1   2
BRANCH   1  48
ATOM     46  C   ASN A   5      29.116  31.960  18.350  0.00  0.00    +0.241 C 
ATOM     47  O   ASN A   5      28.535  32.200  19.416  0.00  0.00    -0.273 OA
ATOM     48  N   ILE A   6      28.966  30.830  17.656  0.00  0.00    -0.297 N 
ATOM     49  H   ILE A   6      29.497  30.713  16.770  0.00  0.00    +0.150 HD
BRANCH  46  50
ATOM     50  CA  ASN A   5      30.063  33.000  17.787  0.00  0.00    +0.158 C 
BRANCH  50  52
ATOM     51  C   VAL A   4      28.303  34.468  16.986  0.00  0.00    +0.241 C 
ATOM     52  N   ASN A   5      29.392  34.294  17.717  0.00  0.00    -0.297 N 
ATOM     53  H   ASN A   5      29.778  35.097  18.253  0.00  0.00    +0.150 HD
ATOM     54  O   VAL A   4      27.882  33.604  16.228  0.00  0.00    -0.273 OA
BRANCH  51  55
ATOM     55  CA  VAL A   4      27.565  35.791  17.128  0.00  0.00    +0.149 C 
BRANCH  55  58
ATOM     56  C   PRO A   3      26.569  37.269  15.444  0.00  0.00    +0.245 C 
ATOM     57  O   PRO A   3      26.819  38.272  16.099  0.00  0.00    -0.273 OA
ATOM     58  N   VAL A   4      26.860  36.043  15.870  0.00  0.00    -0.297 N 
ATOM     59  H   VAL A   4      26.575  35.231  15.286  0.00  0.00    +0.150 HD
BRANCH  56  62
ATOM     60  C   THR A   2      27.334  36.044  12.709  0.00  0.00    +0.247 C 
ATOM     61  N   PRO A   3      26.087  36.286  13.170  0.00  0.00    -0.264 N 
ATOM     62  CA  PRO A   3      25.829  37.384  14.110  0.00  0.00    +0.175 C 
ATOM     63  CB  PRO A   3      24.316  37.325  14.373  0.00  0.00    -0.000 C 
ATOM     64  CG  PRO A   3      23.773  36.230  13.565  0.00  0.00    -0.007 C 
ATOM     65  CD  PRO A   3      24.859  35.568  12.776  0.00  0.00    +0.120 C 
ATOM     66  O   THR A   2      28.296  36.765  13.006  0.00  0.00    -0.273 OA
BRANCH  60  67
ATOM     67  CA  THR A   2      27.566  34.826  11.794  0.00  0.00    +0.176 C 
BRANCH  67  69
ATOM     68  C   PRO A   1      28.435  35.963   9.842  0.00  0.00    +0.239 C 
ATOM     69  N   THR A   2      28.633  35.124  10.848  0.00  0.00    -0.295 N 
ATOM     70  H   THR A   2      29.563  34.672  10.964  0.00  0.00    +0.150 HD
ATOM     71  O   PRO A   1      27.318  36.335   9.520  0.00  0.00    -0.274 OA
BRANCH  68  73
ATOM     72  N   PRO A   1      30.469  35.360   8.494  0.00  0.00    -0.210 NA
ATOM     73  CA  PRO A   1      29.669  36.433   9.084  0.00  0.00    +0.149 C 
ATOM     74  CB  PRO A   1      29.301  37.300   7.879  0.00  0.00    +0.028 C 
ATOM     75  CG  PRO A   1      29.260  36.319   6.733  0.00  0.00    +0.021 C 
ATOM     76  CD  PRO A   1      30.378  35.352   7.021  0.00  0.00    +0.089 C 
ENDBRANCH  68  73
ENDBRANCH  67  69
BRANCH  67  77
ATOM     77  CB  THR A   2      27.941  33.600  12.632  0.00  0.00    +0.137 C 
ATOM     78  CG2 THR A   2      29.280  33.793  13.366  0.00  0.00    +0.034 C 
BRANCH  77  79
ATOM     79  OG1 THR A   2      26.920  33.390  13.601  0.00  0.00    -0.382 OA
ATOM     80  HG1 THR A   2      26.848  34.189  14.181  0.00  0.00    +0.210 HD
ENDBRANCH  77  79
ENDBRANCH  67  77
ENDBRANCH  60  67
ENDBRANCH  56  62
ENDBRANCH  55  58
BRANCH  55  81
ATOM     81  CB  VAL A   4      26.582  35.743  18.318  0.00  0.00    +0.027 C 
ATOM     82  CG2 VAL A   4      27.318  35.677  19.650  0.00  0.00    +0.002 C 
ATOM     83  CG1 VAL A   4      25.650  34.560  18.213  0.00  0.00    +0.002 C 
ENDBRANCH  55  81
ENDBRANCH  51  55
ENDBRANCH  50  52
BRANCH  50  84
ATOM     84  CB  ASN A   5      31.260  33.051  18.735  0.00  0.00    +0.114 C 
BRANCH  84  85
ATOM     85  CG  ASN A   5      32.378  33.958  18.261  0.00  0.00    +0.222 C 
ATOM     86  ND2 ASN A   5      33.062  34.563  19.219  0.00  0.00    -0.329 N 
ATOM     87 HD21 ASN A   5      32.812  34.405  20.216  0.00  0.00    +0.145 HD
ATOM     88 HD22 ASN A   5      33.850  35.196  18.975  0.00  0.00    +0.145 HD
ATOM     89  OD1 ASN A   5      32.628  34.106  17.061  0.00  0.00    -0.275 OA
ENDBRANCH  84  85
ENDBRANCH  50  84
ENDBRANCH  46  50
ENDBRANCH   1  48
BRANCH   1  90
ATOM     90  CB  ILE A   6      26.787  29.638  17.250  0.00  0.00    +0.027 C 
ATOM     91  CG2 ILE A   6      25.926  30.875  17.449  0.00  0.00    +0.002 C 
BRANCH  90  92
ATOM     92  CG1 ILE A   6      27.089  29.413  15.768  0.00  0.00    +0.002 C 
ATOM     93  CD1 ILE A   6      25.883  29.110  14.905  0.00  0.00    +0.000 C 
ENDBRANCH  90  92
ENDBRANCH   1  90
TORSDOF 33
REMARK  Name = ../refined-set-2016/3o9i/3o9i_pocket.pdb
REMARK  230 active torsions:
REMARK  status: ('A' for Active; 'I' for Inactive)
REMARK    1  A    between atoms: _1  and  _3
REMARK    2  A    between atoms: _3  and  _4
REMARK    3  A    between atoms: _3  and  _6
REMARK    4  A    between atoms: _6  and  _7
REMARK    5  A    between atoms: _7  and  _8
REMARK    6  A    between atoms: _8  and  _9
REMARK    7  A    between atoms: _18  and  _20
REMARK    8  A    between atoms: _20  and  _21
REMARK    9  A    between atoms: _20  and  _23
REMARK   10  A    between atoms: _23  and  _24
REMARK   11  A    between atoms: _27  and  _29
REMARK   12  A    between atoms: _29  and  _30
REMARK   13  A    between atoms: _29  and  _32
REMARK   14  A    between atoms: _32  and  _33
REMARK   15  A    between atoms: _36  and  _38
REMARK   16  A    between atoms: _38  and  _39
REMARK   17  A    between atoms: _38  and  _41
REMARK   18  A    between atoms: _41  and  _42
REMARK   19  A    between atoms: _45  and  _47
REMARK   20  A    between atoms: _47  and  _48
REMARK   21  A    between atoms: _47  and  _50
REMARK   22  A    between atoms: _50  and  _51
REMARK   23  A    between atoms: _54  and  _56
REMARK   24  A    between atoms: _56  and  _57
REMARK   25  A    between atoms: _56  and  _59
REMARK   26  A    between atoms: _59  and  _60
REMARK   27  A    between atoms: _63  and  _65
REMARK   28  A    between atoms: _65  and  _66
REMARK   29  A    between atoms: _68  and  _70
REMARK   30  A    between atoms: _70  and  _71
REMARK   31  A    between atoms: _74  and  _76
REMARK   32  A    between atoms: _76  and  _77
REMARK   33  A    between atoms: _76  and  _79
REMARK   34  A    between atoms: _79  and  _80
REMARK   35  A    between atoms: _83  and  _85
REMARK   36  A    between atoms: _85  and  _86
REMARK   37  A    between atoms: _85  and  _88
REMARK   38  A    between atoms: _88  and  _89
REMARK   39  A    between atoms: _92  and  _94
REMARK   40  A    between atoms: _94  and  _95
REMARK   41  A    between atoms: _94  and  _97
REMARK   42  A    between atoms: _97  and  _98
REMARK   43  A    between atoms: _101  and  _103
REMARK   44  A    between atoms: _103  and  _104
REMARK   45  A    between atoms: _103  and  _106
REMARK   46  A    between atoms: _109  and  _111
REMARK   47  A    between atoms: _111  and  _112
REMARK   48  A    between atoms: _111  and  _114
REMARK   49  A    between atoms: _114  and  _115
REMARK   50  A    between atoms: _118  and  _120
REMARK   51  A    between atoms: _120  and  _121
REMARK   52  A    between atoms: _123  and  _125
REMARK   53  A    between atoms: _125  and  _126
REMARK   54  A    between atoms: _128  and  _130
REMARK   55  A    between atoms: _130  and  _131
REMARK   56  A    between atoms: _130  and  _133
REMARK   57  A    between atoms: _133  and  _134
REMARK   58  A    between atoms: _137  and  _139
REMARK   59  A    between atoms: _139  and  _140
REMARK   60  A    between atoms: _142  and  _144
REMARK   61  A    between atoms: _144  and  _145
REMARK   62  A    between atoms: _147  and  _149
REMARK   63  A    between atoms: _149  and  _150
REMARK   64  A    between atoms: _149  and  _152
REMARK   65  A    between atoms: _152  and  _153
REMARK   66  A    between atoms: _159  and  _161
REMARK   67  A    between atoms: _161  and  _162
REMARK   68  A    between atoms: _161  and  _164
REMARK   69  A    between atoms: _164  and  _165
REMARK   70  A    between atoms: _168  and  _170
REMARK   71  A    between atoms: _170  and  _171
REMARK   72  A    between atoms: _170  and  _173
REMARK   73  A    between atoms: _176  and  _178
REMARK   74  A    between atoms: _178  and  _179
REMARK   75  A    between atoms: _178  and  _181
REMARK   76  A    between atoms: _181  and  _182
REMARK   77  A    between atoms: _186  and  _187
REMARK   78  A    between atoms: _192  and  _194
REMARK   79  A    between atoms: _194  and  _195
REMARK   80  A    between atoms: _194  and  _197
REMARK   81  A    between atoms: _197  and  _198
REMARK   82  A    between atoms: _202  and  _203
REMARK   83  A    between atoms: _208  and  _210
REMARK   84  A    between atoms: _210  and  _211
REMARK   85  A    between atoms: _210  and  _213
REMARK   86  A    between atoms: _216  and  _218
REMARK   87  A    between atoms: _218  and  _219
REMARK   88  A    between atoms: _218  and  _221
REMARK   89  A    between atoms: _221  and  _222
REMARK   90  A    between atoms: _227  and  _229
REMARK   91  A    between atoms: _229  and  _230
REMARK   92  A    between atoms: _229  and  _232
REMARK   93  A    between atoms: _232  and  _233
REMARK   94  A    between atoms: _236  and  _238
REMARK   95  A    between atoms: _238  and  _239
REMARK   96  A    between atoms: _238  and  _241
REMARK   97  A    between atoms: _241  and  _242
REMARK   98  A    between atoms: _245  and  _247
REMARK   99  A    between atoms: _247  and  _248
REMARK  100  A    between atoms: _250  and  _252
REMARK  101  A    between atoms: _252  and  _253
REMARK  102  A    between atoms: _252  and  _255
REMARK  103  A    between atoms: _255  and  _256
REMARK  104  A    between atoms: _256  and  _257
REMARK  105  A    between atoms: _257  and  _258
REMARK  106  A    between atoms: _267  and  _269
REMARK  107  A    between atoms: _269  and  _270
REMARK  108  A    between atoms: _269  and  _272
REMARK  109  A    between atoms: _272  and  _273
REMARK  110  A    between atoms: _278  and  _280
REMARK  111  A    between atoms: _280  and  _281
REMARK  112  A    between atoms: _280  and  _283
REMARK  113  A    between atoms: _283  and  _284
REMARK  114  A    between atoms: _284  and  _285
REMARK  115  A    between atoms: _285  and  _286
REMARK  116  A    between atoms: _296  and  _297
REMARK  117  A    between atoms: _302  and  _304
REMARK  118  A    between atoms: _304  and  _305
REMARK  119  A    between atoms: _304  and  _307
REMARK  120  A    between atoms: _307  and  _308
REMARK  121  A    between atoms: _311  and  _313
REMARK  122  A    between atoms: _313  and  _314
REMARK  123  A    between atoms: _313  and  _316
REMARK  124  A    between atoms: _316  and  _317
REMARK  125  A    between atoms: _320  and  _322
REMARK  126  A    between atoms: _322  and  _323
REMARK  127  A    between atoms: _322  and  _325
REMARK  128  A    between atoms: _325  and  _326
REMARK  129  A    between atoms: _329  and  _331
REMARK  130  A    between atoms: _331  and  _332
REMARK  131  A    between atoms: _331  and  _334
REMARK  132  A    between atoms: _334  and  _335
REMARK  133  A    between atoms: _338  and  _340
REMARK  134  A    between atoms: _340  and  _341
REMARK  135  A    between atoms: _340  and  _343
REMARK  136  A    between atoms: _343  and  _344
REMARK  137  A    between atoms: _347  and  _349
REMARK  138  A    between atoms: _349  and  _350
REMARK  139  A    between atoms: _352  and  _354
REMARK  140  A    between atoms: _354  and  _355
REMARK  141  A    between atoms: _358  and  _360
REMARK  142  A    between atoms: _360  and  _361
REMARK  143  A    between atoms: _360  and  _363
REMARK  144  A    between atoms: _363  and  _364
REMARK  145  A    between atoms: _367  and  _369
REMARK  146  A    between atoms: _369  and  _370
REMARK  147  A    between atoms: _369  and  _372
REMARK  148  A    between atoms: _372  and  _373
REMARK  149  A    between atoms: _376  and  _378
REMARK  150  A    between atoms: _378  and  _379
REMARK  151  A    between atoms: _378  and  _381
REMARK  152  A    between atoms: _381  and  _382
REMARK  153  A    between atoms: _385  and  _387
REMARK  154  A    between atoms: _387  and  _388
REMARK  155  A    between atoms: _387  and  _390
REMARK  156  A    between atoms: _393  and  _395
REMARK  157  A    between atoms: _395  and  _396
REMARK  158  A    between atoms: _395  and  _398
REMARK  159  A    between atoms: _398  and  _399
REMARK  160  A    between atoms: _399  and  _400
REMARK  161  A    between atoms: _400  and  _401
REMARK  162  A    between atoms: _401  and  _402
REMARK  163  A    between atoms: _406  and  _408
REMARK  164  A    between atoms: _408  and  _409
REMARK  165  A    between atoms: _408  and  _411
REMARK  166  A    between atoms: _411  and  _412
REMARK  167  A    between atoms: _412  and  _413
REMARK  168  A    between atoms: _415  and  _417
REMARK  169  A    between atoms: _417  and  _418
REMARK  170  A    between atoms: _417  and  _420
REMARK  171  A    between atoms: _420  and  _421
REMARK  172  A    between atoms: _424  and  _426
REMARK  173  A    between atoms: _426  and  _427
REMARK  174  A    between atoms: _429  and  _431
REMARK  175  A    between atoms: _431  and  _432
REMARK  176  A    between atoms: _434  and  _436
REMARK  177  A    between atoms: _436  and  _437
REMARK  178  A    between atoms: _436  and  _439
REMARK  179  A    between atoms: _439  and  _440
REMARK  180  A    between atoms: _443  and  _445
REMARK  181  A    between atoms: _445  and  _446
REMARK  182  A    between atoms: _448  and  _450
REMARK  183  A    between atoms: _450  and  _451
REMARK  184  A    between atoms: _453  and  _455
REMARK  185  A    between atoms: _455  and  _456
REMARK  186  A    between atoms: _455  and  _458
REMARK  187  A    between atoms: _458  and  _459
REMARK  188  A    between atoms: _465  and  _467
REMARK  189  A    between atoms: _467  and  _468
REMARK  190  A    between atoms: _467  and  _470
REMARK  191  A    between atoms: _470  and  _471
REMARK  192  A    between atoms: _474  and  _476
REMARK  193  A    between atoms: _476  and  _477
REMARK  194  A    between atoms: _476  and  _479
REMARK  195  A    between atoms: _482  and  _484
REMARK  196  A    between atoms: _484  and  _485
REMARK  197  A    between atoms: _484  and  _487
REMARK  198  A    between atoms: _487  and  _488
REMARK  199  A    between atoms: _491  and  _493
REMARK  200  A    between atoms: _493  and  _494
REMARK  201  A    between atoms: _493  and  _496
REMARK  202  A    between atoms: _496  and  _497
REMARK  203  A    between atoms: _501  and  _502
REMARK  204  A    between atoms: _507  and  _509
REMARK  205  A    between atoms: _509  and  _510
REMARK  206  A    between atoms: _509  and  _512
REMARK  207  A    between atoms: _515  and  _517
REMARK  208  A    between atoms: _517  and  _518
REMARK  209  A    between atoms: _517  and  _520
REMARK  210  A    between atoms: _520  and  _521
REMARK  211  A    between atoms: _526  and  _528
REMARK  212  A    between atoms: _528  and  _529
REMARK  213  A    between atoms: _528  and  _531
REMARK  214  A    between atoms: _531  and  _532
REMARK  215  A    between atoms: _535  and  _537
REMARK  216  A    between atoms: _537  and  _538
REMARK  217  A    between atoms: _537  and  _540
REMARK  218  A    between atoms: _540  and  _541
REMARK  219  A    between atoms: _544  and  _546
REMARK  220  A    between atoms: _546  and  _547
REMARK  221  A    between atoms: _549  and  _551
REMARK  222  A    between atoms: _551  and  _552
REMARK  223  A    between atoms: _551  and  _554
REMARK  224  A    between atoms: _554  and  _555
REMARK  225  A    between atoms: _555  and  _556
REMARK  226  A    between atoms: _556  and  _557
REMARK  227  A    between atoms: _566  and  _568
REMARK  228  A    between atoms: _568  and  _569
REMARK  229  A    between atoms: _568  and  _571
REMARK  230  A    between atoms: _571  and  _572
REMARK                            x       y       z     vdW  Elec       q    Type
REMARK                         _______ _______ _______ _____ _____    ______ ____
ROOT
ATOM      1  C   ARG A   1      17.508  17.537  16.806  0.00  0.00    +0.241 C 
ATOM      2  N   PRO A   2      17.454  18.366  17.865  0.00  0.00    -0.272 N 
ATOM      3  CA  PRO A   2      16.536  18.135  18.979  0.00  0.00    +0.152 C 
ATOM      4  CB  PRO A   2      17.167  18.939  20.124  0.00  0.00    +0.031 C 
ATOM      5  CG  PRO A   2      17.827  20.057  19.443  0.00  0.00    +0.024 C 
ATOM      6  CD  PRO A   2      18.408  19.446  18.180  0.00  0.00    +0.094 C 
ATOM      7  O   ARG A   1      16.787  16.537  16.710  0.00  0.00    -0.273 OA
ENDROOT
BRANCH   3   8
ATOM      8  C   PRO A   2      15.124  18.601  18.637  0.00  0.00    +0.241 C 
ATOM      9  O   PRO A   2      14.603  19.545  19.231  0.00  0.00    -0.273 OA
ATOM     10  N   LEU A   3      14.501  17.878  17.713  0.00  0.00    -0.298 N 
ATOM     11  H   LEU A   3      15.022  17.098  17.264  0.00  0.00    +0.150 HD
BRANCH  10  12
ATOM     12  CA  LEU A   3      13.132  18.118  17.296  0.00  0.00    +0.137 C 
BRANCH  12  13
ATOM     13  C   LEU A   3      12.180  17.397  18.249  0.00  0.00    +0.227 C 
ATOM     14  O   LEU A   3      12.348  16.213  18.549  0.00  0.00    -0.286 OA
ENDBRANCH  12  13
BRANCH  12  15
ATOM     15  CB  LEU A   3      12.921  17.636  15.858  0.00  0.00    +0.028 C 
BRANCH  15  16
ATOM     16  CG  LEU A   3      13.664  18.442  14.793  0.00  0.00    +0.002 C 
ATOM     17  CD2 LEU A   3      13.024  19.810  14.567  0.00  0.00    +0.000 C 
ATOM     18  CD1 LEU A   3      13.681  17.641  13.486  0.00  0.00    +0.000 C 
ENDBRANCH  15  16
ENDBRANCH  12  15
ENDBRANCH  10  12
ENDBRANCH   3   8
BRANCH   1  19
ATOM     19  CA  ARG A   1      18.512  17.856  15.696  0.00  0.00    +0.145 C 
BRANCH  19  20
ATOM     20  N   ARG A   1      19.227  16.647  15.332  0.00  0.00    -0.238 NA
ATOM     21  H   ARG A   1      19.181  16.306  14.351  0.00  0.00    +0.142 HD
ENDBRANCH  19  20
BRANCH  19  22
ATOM     22  CB  ARG A   1      17.776  18.427  14.492  0.00  0.00    +0.030 C 
BRANCH  22  23
ATOM     23  CG  ARG A   1      18.717  19.021  13.450  0.00  0.00    +0.045 C 
BRANCH  23  24
ATOM     24  CD  ARG A   1      17.944  19.755  12.361  0.00  0.00    +0.174 C 
BRANCH  24  25
ATOM     25  NE  ARG A   1      18.845  20.484  11.473  0.00  0.00    -0.265 N 
ATOM     26  HE  ARG A   1      19.866  20.354  11.624  0.00  0.00    +0.259 HD
ATOM     27  CZ  ARG A   1      18.477  21.301  10.486  0.00  0.00    +0.342 C 
ATOM     28  NH2 ARG A   1      17.194  21.541  10.231  0.00  0.00    -0.292 N 
ATOM     29 HH21 ARG A   1      16.456  21.088  10.807  0.00  0.00    +0.255 HD
ATOM     30 HH22 ARG A   1      16.929  22.182   9.456  0.00  0.00    +0.255 HD
ATOM     31  NH1 ARG A   1      19.414  21.884   9.743  0.00  0.00    -0.292 N 
ATOM     32 HH11 ARG A   1      20.419  21.700   9.935  0.00  0.00    +0.255 HD
ATOM     33 HH12 ARG A   1      19.141  22.524   8.970  0.00  0.00    +0.255 HD
ENDBRANCH  24  25
ENDBRANCH  23  24
ENDBRANCH  22  23
ENDBRANCH  19  22
ENDBRANCH   1  19
TORSDOF 11
REMARK  Name = ../refined-set-2016/3o9i/3o9i_pocket.pdb
REMARK  230 active torsions:
REMARK  status: ('A' for Active; 'I' for Inactive)
REMARK    1  A    between atoms: _1  and  _3
REMARK    2  A    between atoms: _3  and  _4
REMARK    3  A    between atoms: _3  and  _6
REMARK    4  A    between atoms: _6  and  _7
REMARK    5  A    between atoms: _7  and  _8
REMARK    6  A    between atoms: _8  and  _9
REMARK    7  A    between atoms: _18  and  _20
REMARK    8  A    between atoms: _20  and  _21
REMARK    9  A    between atoms: _20  and  _23
REMARK   10  A    between atoms: _23  and  _24
REMARK   11  A    between atoms: _27  and  _29
REMARK   12  A    between atoms: _29  and  _30
REMARK   13  A    between atoms: _29  and  _32
REMARK   14  A    between atoms: _32  and  _33
REMARK   15  A    between atoms: _36  and  _38
REMARK   16  A    between atoms: _38  and  _39
REMARK   17  A    between atoms: _38  and  _41
REMARK   18  A    between atoms: _41  and  _42
REMARK   19  A    between atoms: _45  and  _47
REMARK   20  A    between atoms: _47  and  _48
REMARK   21  A    between atoms: _47  and  _50
REMARK   22  A    between atoms: _50  and  _51
REMARK   23  A    between atoms: _54  and  _56
REMARK   24  A    between atoms: _56  and  _57
REMARK   25  A    between atoms: _56  and  _59
REMARK   26  A    between atoms: _59  and  _60
REMARK   27  A    between atoms: _63  and  _65
REMARK   28  A    between atoms: _65  and  _66
REMARK   29  A    between atoms: _68  and  _70
REMARK   30  A    between atoms: _70  and  _71
REMARK   31  A    between atoms: _74  and  _76
REMARK   32  A    between atoms: _76  and  _77
REMARK   33  A    between atoms: _76  and  _79
REMARK   34  A    between atoms: _79  and  _80
REMARK   35  A    between atoms: _83  and  _85
REMARK   36  A    between atoms: _85  and  _86
REMARK   37  A    between atoms: _85  and  _88
REMARK   38  A    between atoms: _88  and  _89
REMARK   39  A    between atoms: _92  and  _94
REMARK   40  A    between atoms: _94  and  _95
REMARK   41  A    between atoms: _94  and  _97
REMARK   42  A    between atoms: _97  and  _98
REMARK   43  A    between atoms: _101  and  _103
REMARK   44  A    between atoms: _103  and  _104
REMARK   45  A    between atoms: _103  and  _106
REMARK   46  A    between atoms: _109  and  _111
REMARK   47  A    between atoms: _111  and  _112
REMARK   48  A    between atoms: _111  and  _114
REMARK   49  A    between atoms: _114  and  _115
REMARK   50  A    between atoms: _118  and  _120
REMARK   51  A    between atoms: _120  and  _121
REMARK   52  A    between atoms: _123  and  _125
REMARK   53  A    between atoms: _125  and  _126
REMARK   54  A    between atoms: _128  and  _130
REMARK   55  A    between atoms: _130  and  _131
REMARK   56  A    between atoms: _130  and  _133
REMARK   57  A    between atoms: _133  and  _134
REMARK   58  A    between atoms: _137  and  _139
REMARK   59  A    between atoms: _139  and  _140
REMARK   60  A    between atoms: _142  and  _144
REMARK   61  A    between atoms: _144  and  _145
REMARK   62  A    between atoms: _147  and  _149
REMARK   63  A    between atoms: _149  and  _150
REMARK   64  A    between atoms: _149  and  _152
REMARK   65  A    between atoms: _152  and  _153
REMARK   66  A    between atoms: _159  and  _161
REMARK   67  A    between atoms: _161  and  _162
REMARK   68  A    between atoms: _161  and  _164
REMARK   69  A    between atoms: _164  and  _165
REMARK   70  A    between atoms: _168  and  _170
REMARK   71  A    between atoms: _170  and  _171
REMARK   72  A    between atoms: _170  and  _173
REMARK   73  A    between atoms: _176  and  _178
REMARK   74  A    between atoms: _178  and  _179
REMARK   75  A    between atoms: _178  and  _181
REMARK   76  A    between atoms: _181  and  _182
REMARK   77  A    between atoms: _186  and  _187
REMARK   78  A    between atoms: _192  and  _194
REMARK   79  A    between atoms: _194  and  _195
REMARK   80  A    between atoms: _194  and  _197
REMARK   81  A    between atoms: _197  and  _198
REMARK   82  A    between atoms: _202  and  _203
REMARK   83  A    between atoms: _208  and  _210
REMARK   84  A    between atoms: _210  and  _211
REMARK   85  A    between atoms: _210  and  _213
REMARK   86  A    between atoms: _216  and  _218
REMARK   87  A    between atoms: _218  and  _219
REMARK   88  A    between atoms: _218  and  _221
REMARK   89  A    between atoms: _221  and  _222
REMARK   90  A    between atoms: _227  and  _229
REMARK   91  A    between atoms: _229  and  _230
REMARK   92  A    between atoms: _229  and  _232
REMARK   93  A    between atoms: _232  and  _233
REMARK   94  A    between atoms: _236  and  _238
REMARK   95  A    between atoms: _238  and  _239
REMARK   96  A    between atoms: _238  and  _241
REMARK   97  A    between atoms: _241  and  _242
REMARK   98  A    between atoms: _245  and  _247
REMARK   99  A    between atoms: _247  and  _248
REMARK  100  A    between atoms: _250  and  _252
REMARK  101  A    between atoms: _252  and  _253
REMARK  102  A    between atoms: _252  and  _255
REMARK  103  A    between atoms: _255  and  _256
REMARK  104  A    between atoms: _256  and  _257
REMARK  105  A    between atoms: _257  and  _258
REMARK  106  A    between atoms: _267  and  _269
REMARK  107  A    between atoms: _269  and  _270
REMARK  108  A    between atoms: _269  and  _272
REMARK  109  A    between atoms: _272  and  _273
REMARK  110  A    between atoms: _278  and  _280
REMARK  111  A    between atoms: _280  and  _281
REMARK  112  A    between atoms: _280  and  _283
REMARK  113  A    between atoms: _283  and  _284
REMARK  114  A    between atoms: _284  and  _285
REMARK  115  A    between atoms: _285  and  _286
REMARK  116  A    between atoms: _296  and  _297
REMARK  117  A    between atoms: _302  and  _304
REMARK  118  A    between atoms: _304  and  _305
REMARK  119  A    between atoms: _304  and  _307
REMARK  120  A    between atoms: _307  and  _308
REMARK  121  A    between atoms: _311  and  _313
REMARK  122  A    between atoms: _313  and  _314
REMARK  123  A    between atoms: _313  and  _316
REMARK  124  A    between atoms: _316  and  _317
REMARK  125  A    between atoms: _320  and  _322
REMARK  126  A    between atoms: _322  and  _323
REMARK  127  A    between atoms: _322  and  _325
REMARK  128  A    between atoms: _325  and  _326
REMARK  129  A    between atoms: _329  and  _331
REMARK  130  A    between atoms: _331  and  _332
REMARK  131  A    between atoms: _331  and  _334
REMARK  132  A    between atoms: _334  and  _335
REMARK  133  A    between atoms: _338  and  _340
REMARK  134  A    between atoms: _340  and  _341
REMARK  135  A    between atoms: _340  and  _343
REMARK  136  A    between atoms: _343  and  _344
REMARK  137  A    between atoms: _347  and  _349
REMARK  138  A    between atoms: _349  and  _350
REMARK  139  A    between atoms: _352  and  _354
REMARK  140  A    between atoms: _354  and  _355
REMARK  141  A    between atoms: _358  and  _360
REMARK  142  A    between atoms: _360  and  _361
REMARK  143  A    between atoms: _360  and  _363
REMARK  144  A    between atoms: _363  and  _364
REMARK  145  A    between atoms: _367  and  _369
REMARK  146  A    between atoms: _369  and  _370
REMARK  147  A    between atoms: _369  and  _372
REMARK  148  A    between atoms: _372  and  _373
REMARK  149  A    between atoms: _376  and  _378
REMARK  150  A    between atoms: _378  and  _379
REMARK  151  A    between atoms: _378  and  _381
REMARK  152  A    between atoms: _381  and  _382
REMARK  153  A    between atoms: _385  and  _387
REMARK  154  A    between atoms: _387  and  _388
REMARK  155  A    between atoms: _387  and  _390
REMARK  156  A    between atoms: _393  and  _395
REMARK  157  A    between atoms: _395  and  _396
REMARK  158  A    between atoms: _395  and  _398
REMARK  159  A    between atoms: _398  and  _399
REMARK  160  A    between atoms: _399  and  _400
REMARK  161  A    between atoms: _400  and  _401
REMARK  162  A    between atoms: _401  and  _402
REMARK  163  A    between atoms: _406  and  _408
REMARK  164  A    between atoms: _408  and  _409
REMARK  165  A    between atoms: _408  and  _411
REMARK  166  A    between atoms: _411  and  _412
REMARK  167  A    between atoms: _412  and  _413
REMARK  168  A    between atoms: _415  and  _417
REMARK  169  A    between atoms: _417  and  _418
REMARK  170  A    between atoms: _417  and  _420
REMARK  171  A    between atoms: _420  and  _421
REMARK  172  A    between atoms: _424  and  _426
REMARK  173  A    between atoms: _426  and  _427
REMARK  174  A    between atoms: _429  and  _431
REMARK  175  A    between atoms: _431  and  _432
REMARK  176  A    between atoms: _434  and  _436
REMARK  177  A    between atoms: _436  and  _437
REMARK  178  A    between atoms: _436  and  _439
REMARK  179  A    between atoms: _439  and  _440
REMARK  180  A    between atoms: _443  and  _445
REMARK  181  A    between atoms: _445  and  _446
REMARK  182  A    between atoms: _448  and  _450
REMARK  183  A    between atoms: _450  and  _451
REMARK  184  A    between atoms: _453  and  _455
REMARK  185  A    between atoms: _455  and  _456
REMARK  186  A    between atoms: _455  and  _458
REMARK  187  A    between atoms: _458  and  _459
REMARK  188  A    between atoms: _465  and  _467
REMARK  189  A    between atoms: _467  and  _468
REMARK  190  A    between atoms: _467  and  _470
REMARK  191  A    between atoms: _470  and  _471
REMARK  192  A    between atoms: _474  and  _476
REMARK  193  A    between atoms: _476  and  _477
REMARK  194  A    between atoms: _476  and  _479
REMARK  195  A    between atoms: _482  and  _484
REMARK  196  A    between atoms: _484  and  _485
REMARK  197  A    between atoms: _484  and  _487
REMARK  198  A    between atoms: _487  and  _488
REMARK  199  A    between atoms: _491  and  _493
REMARK  200  A    between atoms: _493  and  _494
REMARK  201  A    between atoms: _493  and  _496
REMARK  202  A    between atoms: _496  and  _497
REMARK  203  A    between atoms: _501  and  _502
REMARK  204  A    between atoms: _507  and  _509
REMARK  205  A    between atoms: _509  and  _510
REMARK  206  A    between atoms: _509  and  _512
REMARK  207  A    between atoms: _515  and  _517
REMARK  208  A    between atoms: _517  and  _518
REMARK  209  A    between atoms: _517  and  _520
REMARK  210  A    between atoms: _520  and  _521
REMARK  211  A    between atoms: _526  and  _528
REMARK  212  A    between atoms: _528  and  _529
REMARK  213  A    between atoms: _528  and  _531
REMARK  214  A    between atoms: _531  and  _532
REMARK  215  A    between atoms: _535  and  _537
REMARK  216  A    between atoms: _537  and  _538
REMARK  217  A    between atoms: _537  and  _540
REMARK  218  A    between atoms: _540  and  _541
REMARK  219  A    between atoms: _544  and  _546
REMARK  220  A    between atoms: _546  and  _547
REMARK  221  A    between atoms: _549  and  _551
REMARK  222  A    between atoms: _551  and  _552
REMARK  223  A    between atoms: _551  and  _554
REMARK  224  A    between atoms: _554  and  _555
REMARK  225  A    between atoms: _555  and  _556
REMARK  226  A    between atoms: _556  and  _557
REMARK  227  A    between atoms: _566  and  _568
REMARK  228  A    between atoms: _568  and  _569
REMARK  229  A    between atoms: _568  and  _571
REMARK  230  A    between atoms: _571  and  _572
REMARK                            x       y       z     vdW  Elec       q    Type
REMARK                         _______ _______ _______ _____ _____    ______ ____
ROOT
ATOM      1  C   GLY A   5      19.561  30.792  20.346  0.00  0.00    +0.243 C 
ATOM      2  N   ALA A   6      18.282  30.462  20.538  0.00  0.00    -0.297 N 
ATOM      3  H   ALA A   6      18.070  29.540  20.969  0.00  0.00    +0.150 HD
ATOM      4  O   GLY A   5      19.924  31.874  19.876  0.00  0.00    -0.273 OA
ENDROOT
BRANCH   2   5
ATOM      5  CA  ALA A   6      17.162  31.333  20.172  0.00  0.00    +0.149 C 
ATOM      6  CB  ALA A   6      16.044  30.490  19.571  0.00  0.00    +0.031 C 
BRANCH   5   7
ATOM      7  C   ALA A   6      16.614  32.067  21.382  0.00  0.00    +0.241 C 
ATOM      8  O   ALA A   6      16.112  31.431  22.316  0.00  0.00    -0.273 OA
ATOM      9  N   ASP A   7      16.652  33.396  21.358  0.00  0.00    -0.297 N 
ATOM     10  H   ASP A   7      17.093  33.894  20.559  0.00  0.00    +0.150 HD
BRANCH   9  11
ATOM     11  CA  ASP A   7      16.066  34.153  22.469  0.00  0.00    +0.160 C 
BRANCH  11  12
ATOM     12  C   ASP A   7      14.558  33.947  22.503  0.00  0.00    +0.241 C 
ATOM     13  O   ASP A   7      13.957  33.779  23.569  0.00  0.00    -0.273 OA
ATOM     14  N   ASP A   8      13.961  33.995  21.319  0.00  0.00    -0.297 N 
ATOM     15  H   ASP A   8      14.567  34.048  20.475  0.00  0.00    +0.150 HD
BRANCH  14  16
ATOM     16  CA  ASP A   8      12.518  33.979  21.115  0.00  0.00    +0.160 C 
BRANCH  16  17
ATOM     17  C   ASP A   8      12.099  32.706  20.370  0.00  0.00    +0.241 C 
ATOM     18  N   THR A   9      10.811  32.394  20.451  0.00  0.00    -0.295 N 
ATOM     19  H   THR A   9      10.195  32.989  21.041  0.00  0.00    +0.150 HD
ATOM     20  O   ASP A   8      12.918  32.010  19.760  0.00  0.00    -0.273 OA
BRANCH  18  21
ATOM     21  CA  THR A   9      10.225  31.273  19.763  0.00  0.00    +0.176 C 
BRANCH  21  22
ATOM     22  C   THR A   9       9.711  31.744  18.397  0.00  0.00    +0.243 C 
ATOM     23  O   THR A   9       9.023  32.763  18.302  0.00  0.00    -0.273 OA
ATOM     24  N   VAL A  10      10.070  31.018  17.343  0.00  0.00    -0.298 N 
ATOM     25  H   VAL A  10      10.597  30.135  17.498  0.00  0.00    +0.150 HD
BRANCH  24  26
ATOM     26  CA  VAL A  10       9.750  31.417  15.974  0.00  0.00    +0.137 C 
BRANCH  26  27
ATOM     27  CB  VAL A  10      11.003  31.823  15.170  0.00  0.00    +0.026 C 
ATOM     28  CG2 VAL A  10      11.946  32.686  16.015  0.00  0.00    +0.002 C 
ATOM     29  CG1 VAL A  10      10.595  32.518  13.879  0.00  0.00    +0.002 C 
ENDBRANCH  26  27
BRANCH  26  30
ATOM     30  C   VAL A  10       9.092  30.232  15.281  0.00  0.00    +0.227 C 
ATOM     31  O   VAL A  10       9.688  29.153  15.158  0.00  0.00    -0.286 OA
ENDBRANCH  26  30
ENDBRANCH  24  26
ENDBRANCH  21  22
BRANCH  21  32
ATOM     32  CB  THR A   9       9.098  30.705  20.644  0.00  0.00    +0.137 C 
ATOM     33  CG2 THR A   9       8.284  29.666  19.906  0.00  0.00    +0.034 C 
BRANCH  32  34
ATOM     34  OG1 THR A   9       9.691  30.124  21.812  0.00  0.00    -0.382 OA
ATOM     35  HG1 THR A   9      10.192  30.820  22.307  0.00  0.00    +0.210 HD
ENDBRANCH  32  34
ENDBRANCH  21  32
ENDBRANCH  18  21
ENDBRANCH  16  17
BRANCH  16  36
ATOM     36  CB  ASP A   8      12.086  35.222  20.324  0.00  0.00    +0.143 C 
BRANCH  36  37
ATOM     37  CG  ASP A   8      12.533  36.525  20.960  0.00  0.00    +0.367 C 
ATOM     38  OD2 ASP A   8      12.629  36.610  22.202  0.00  0.00    -0.246 OA
ATOM     39  OD1 ASP A   8      12.747  37.501  20.212  0.00  0.00    -0.246 OA
ENDBRANCH  36  37
ENDBRANCH  16  36
ENDBRANCH  14  16
ENDBRANCH  11  12
BRANCH  11  40
ATOM     40  CB  ASP A   7      16.312  35.648  22.316  0.00  0.00    +0.143 C 
BRANCH  40  41
ATOM     41  CG  ASP A   7      17.763  36.027  22.283  0.00  0.00    +0.367 C 
ATOM     42  OD2 ASP A   7      18.624  35.312  22.834  0.00  0.00    -0.246 OA
ATOM     43  OD1 ASP A   7      18.020  37.121  21.726  0.00  0.00    -0.246 OA
ENDBRANCH  40  41
ENDBRANCH  11  40
ENDBRANCH   9  11
ENDBRANCH   5   7
ENDBRANCH   2   5
BRANCH   1  44
ATOM     44  CA  GLY A   5      20.603  29.752  20.711  0.00  0.00    +0.176 C 
BRANCH  44  47
ATOM     45  C   THR A   4      19.837  28.549  22.690  0.00  0.00    +0.243 C 
ATOM     46  O   THR A   4      20.128  29.491  23.432  0.00  0.00    -0.273 OA
ATOM     47  N   GLY A   5      20.056  28.574  21.374  0.00  0.00    -0.295 N 
ATOM     48  H   GLY A   5      19.831  27.732  20.807  0.00  0.00    +0.150 HD
BRANCH  45  49
ATOM     49  CA  THR A   4      19.198  27.286  23.262  0.00  0.00    +0.176 C 
BRANCH  49  51
ATOM     50  C   ASP A   3      17.485  26.803  21.610  0.00  0.00    +0.241 C 
ATOM     51  N   THR A   4      18.565  26.418  22.285  0.00  0.00    -0.295 N 
ATOM     52  H   THR A   4      18.965  25.474  22.109  0.00  0.00    +0.150 HD
ATOM     53  O   ASP A   3      16.969  27.913  21.763  0.00  0.00    -0.273 OA
BRANCH  50  54
ATOM     54  CA  ASP A   3      16.946  25.812  20.589  0.00  0.00    +0.160 C 
BRANCH  54  56
ATOM     55  C   LEU A   2      15.876  23.693  21.143  0.00  0.00    +0.241 C 
ATOM     56  N   ASP A   3      15.814  25.020  21.070  0.00  0.00    -0.297 N 
ATOM     57  H   ASP A   3      14.941  25.505  21.361  0.00  0.00    +0.150 HD
ATOM     58  O   LEU A   2      16.925  23.066  21.033  0.00  0.00    -0.273 OA
BRANCH  55  59
ATOM     59  CA  LEU A   2      14.561  22.951  21.309  0.00  0.00    +0.149 C 
BRANCH  59  61
ATOM     60  C   LEU A   1      13.707  23.121  19.041  0.00  0.00    +0.238 C 
ATOM     61  N   LEU A   2      14.237  22.376  20.002  0.00  0.00    -0.297 N 
ATOM     62  H   LEU A   2      14.425  21.369  19.825  0.00  0.00    +0.150 HD
ATOM     63  O   LEU A   1      13.282  24.251  19.248  0.00  0.00    -0.274 OA
BRANCH  60  64
ATOM     64  CA  LEU A   1      13.723  22.569  17.633  0.00  0.00    +0.145 C 
BRANCH  64  65
ATOM     65  N   LEU A   1      12.409  22.689  16.992  0.00  0.00    -0.238 NA
ATOM     66  H   LEU A   1      12.253  23.454  16.305  0.00  0.00    +0.142 HD
ENDBRANCH  64  65
BRANCH  64  67
ATOM     67  CB  LEU A   1      14.793  23.359  16.888  0.00  0.00    +0.026 C 
BRANCH  67  68
ATOM     68  CG  LEU A   1      15.255  22.885  15.531  0.00  0.00    +0.002 C 
ATOM     69  CD2 LEU A   1      16.045  21.583  15.642  0.00  0.00    +0.000 C 
ATOM     70  CD1 LEU A   1      16.125  23.975  14.912  0.00  0.00    +0.000 C 
ENDBRANCH  67  68
ENDBRANCH  64  67
ENDBRANCH  60  64
ENDBRANCH  59  61
BRANCH  59  71
ATOM     71  CB  LEU A   2      14.700  21.867  22.369  0.00  0.00    +0.029 C 
BRANCH  71  72
ATOM     72  CG  LEU A   2      13.424  21.053  22.565  0.00  0.00    +0.002 C 
ATOM     73  CD2 LEU A   2      13.736  19.943  23.567  0.00  0.00    +0.000 C 
ATOM     74  CD1 LEU A   2      12.221  21.891  23.010  0.00  0.00    +0.000 C 
ENDBRANCH  71  72
ENDBRANCH  59  71
ENDBRANCH  55  59
ENDBRANCH  54  56
BRANCH  54  75
ATOM     75  CB  ASP A   3      16.531  26.555  19.327  0.00  0.00    +0.143 C 
BRANCH  75  76
ATOM     76  CG  ASP A   3      17.692  27.193  18.610  0.00  0.00    +0.367 C 
ATOM     77  OD2 ASP A   3      18.802  27.190  19.178  0.00  0.00    -0.246 OA
ATOM     78  OD1 ASP A   3      17.492  27.635  17.460  0.00  0.00    -0.246 OA
ENDBRANCH  75  76
ENDBRANCH  54  75
ENDBRANCH  50  54
ENDBRANCH  49  51
BRANCH  49  79
ATOM     79  CB  THR A   4      20.254  26.511  24.057  0.00  0.00    +0.137 C 
ATOM     80  CG2 THR A   4      19.613  25.326  24.759  0.00  0.00    +0.034 C 
BRANCH  79  81
ATOM     81  OG1 THR A   4      21.295  26.053  23.177  0.00  0.00    -0.382 OA
ATOM     82  HG1 THR A   4      21.722  26.832  22.740  0.00  0.00    +0.210 HD
ENDBRANCH  79  81
ENDBRANCH  49  79
ENDBRANCH  45  49
ENDBRANCH  44  47
ENDBRANCH   1  44
TORSDOF 35
REMARK  Name = ../refined-set-2016/3o9i/3o9i_pocket.pdb
REMARK  230 active torsions:
REMARK  status: ('A' for Active; 'I' for Inactive)
REMARK    1  A    between atoms: _1  and  _3
REMARK    2  A    between atoms: _3  and  _4
REMARK    3  A    between atoms: _3  and  _6
REMARK    4  A    between atoms: _6  and  _7
REMARK    5  A    between atoms: _7  and  _8
REMARK    6  A    between atoms: _8  and  _9
REMARK    7  A    between atoms: _18  and  _20
REMARK    8  A    between atoms: _20  and  _21
REMARK    9  A    between atoms: _20  and  _23
REMARK   10  A    between atoms: _23  and  _24
REMARK   11  A    between atoms: _27  and  _29
REMARK   12  A    between atoms: _29  and  _30
REMARK   13  A    between atoms: _29  and  _32
REMARK   14  A    between atoms: _32  and  _33
REMARK   15  A    between atoms: _36  and  _38
REMARK   16  A    between atoms: _38  and  _39
REMARK   17  A    between atoms: _38  and  _41
REMARK   18  A    between atoms: _41  and  _42
REMARK   19  A    between atoms: _45  and  _47
REMARK   20  A    between atoms: _47  and  _48
REMARK   21  A    between atoms: _47  and  _50
REMARK   22  A    between atoms: _50  and  _51
REMARK   23  A    between atoms: _54  and  _56
REMARK   24  A    between atoms: _56  and  _57
REMARK   25  A    between atoms: _56  and  _59
REMARK   26  A    between atoms: _59  and  _60
REMARK   27  A    between atoms: _63  and  _65
REMARK   28  A    between atoms: _65  and  _66
REMARK   29  A    between atoms: _68  and  _70
REMARK   30  A    between atoms: _70  and  _71
REMARK   31  A    between atoms: _74  and  _76
REMARK   32  A    between atoms: _76  and  _77
REMARK   33  A    between atoms: _76  and  _79
REMARK   34  A    between atoms: _79  and  _80
REMARK   35  A    between atoms: _83  and  _85
REMARK   36  A    between atoms: _85  and  _86
REMARK   37  A    between atoms: _85  and  _88
REMARK   38  A    between atoms: _88  and  _89
REMARK   39  A    between atoms: _92  and  _94
REMARK   40  A    between atoms: _94  and  _95
REMARK   41  A    between atoms: _94  and  _97
REMARK   42  A    between atoms: _97  and  _98
REMARK   43  A    between atoms: _101  and  _103
REMARK   44  A    between atoms: _103  and  _104
REMARK   45  A    between atoms: _103  and  _106
REMARK   46  A    between atoms: _109  and  _111
REMARK   47  A    between atoms: _111  and  _112
REMARK   48  A    between atoms: _111  and  _114
REMARK   49  A    between atoms: _114  and  _115
REMARK   50  A    between atoms: _118  and  _120
REMARK   51  A    between atoms: _120  and  _121
REMARK   52  A    between atoms: _123  and  _125
REMARK   53  A    between atoms: _125  and  _126
REMARK   54  A    between atoms: _128  and  _130
REMARK   55  A    between atoms: _130  and  _131
REMARK   56  A    between atoms: _130  and  _133
REMARK   57  A    between atoms: _133  and  _134
REMARK   58  A    between atoms: _137  and  _139
REMARK   59  A    between atoms: _139  and  _140
REMARK   60  A    between atoms: _142  and  _144
REMARK   61  A    between atoms: _144  and  _145
REMARK   62  A    between atoms: _147  and  _149
REMARK   63  A    between atoms: _149  and  _150
REMARK   64  A    between atoms: _149  and  _152
REMARK   65  A    between atoms: _152  and  _153
REMARK   66  A    between atoms: _159  and  _161
REMARK   67  A    between atoms: _161  and  _162
REMARK   68  A    between atoms: _161  and  _164
REMARK   69  A    between atoms: _164  and  _165
REMARK   70  A    between atoms: _168  and  _170
REMARK   71  A    between atoms: _170  and  _171
REMARK   72  A    between atoms: _170  and  _173
REMARK   73  A    between atoms: _176  and  _178
REMARK   74  A    between atoms: _178  and  _179
REMARK   75  A    between atoms: _178  and  _181
REMARK   76  A    between atoms: _181  and  _182
REMARK   77  A    between atoms: _186  and  _187
REMARK   78  A    between atoms: _192  and  _194
REMARK   79  A    between atoms: _194  and  _195
REMARK   80  A    between atoms: _194  and  _197
REMARK   81  A    between atoms: _197  and  _198
REMARK   82  A    between atoms: _202  and  _203
REMARK   83  A    between atoms: _208  and  _210
REMARK   84  A    between atoms: _210  and  _211
REMARK   85  A    between atoms: _210  and  _213
REMARK   86  A    between atoms: _216  and  _218
REMARK   87  A    between atoms: _218  and  _219
REMARK   88  A    between atoms: _218  and  _221
REMARK   89  A    between atoms: _221  and  _222
REMARK   90  A    between atoms: _227  and  _229
REMARK   91  A    between atoms: _229  and  _230
REMARK   92  A    between atoms: _229  and  _232
REMARK   93  A    between atoms: _232  and  _233
REMARK   94  A    between atoms: _236  and  _238
REMARK   95  A    between atoms: _238  and  _239
REMARK   96  A    between atoms: _238  and  _241
REMARK   97  A    between atoms: _241  and  _242
REMARK   98  A    between atoms: _245  and  _247
REMARK   99  A    between atoms: _247  and  _248
REMARK  100  A    between atoms: _250  and  _252
REMARK  101  A    between atoms: _252  and  _253
REMARK  102  A    between atoms: _252  and  _255
REMARK  103  A    between atoms: _255  and  _256
REMARK  104  A    between atoms: _256  and  _257
REMARK  105  A    between atoms: _257  and  _258
REMARK  106  A    between atoms: _267  and  _269
REMARK  107  A    between atoms: _269  and  _270
REMARK  108  A    between atoms: _269  and  _272
REMARK  109  A    between atoms: _272  and  _273
REMARK  110  A    between atoms: _278  and  _280
REMARK  111  A    between atoms: _280  and  _281
REMARK  112  A    between atoms: _280  and  _283
REMARK  113  A    between atoms: _283  and  _284
REMARK  114  A    between atoms: _284  and  _285
REMARK  115  A    between atoms: _285  and  _286
REMARK  116  A    between atoms: _296  and  _297
REMARK  117  A    between atoms: _302  and  _304
REMARK  118  A    between atoms: _304  and  _305
REMARK  119  A    between atoms: _304  and  _307
REMARK  120  A    between atoms: _307  and  _308
REMARK  121  A    between atoms: _311  and  _313
REMARK  122  A    between atoms: _313  and  _314
REMARK  123  A    between atoms: _313  and  _316
REMARK  124  A    between atoms: _316  and  _317
REMARK  125  A    between atoms: _320  and  _322
REMARK  126  A    between atoms: _322  and  _323
REMARK  127  A    between atoms: _322  and  _325
REMARK  128  A    between atoms: _325  and  _326
REMARK  129  A    between atoms: _329  and  _331
REMARK  130  A    between atoms: _331  and  _332
REMARK  131  A    between atoms: _331  and  _334
REMARK  132  A    between atoms: _334  and  _335
REMARK  133  A    between atoms: _338  and  _340
REMARK  134  A    between atoms: _340  and  _341
REMARK  135  A    between atoms: _340  and  _343
REMARK  136  A    between atoms: _343  and  _344
REMARK  137  A    between atoms: _347  and  _349
REMARK  138  A    between atoms: _349  and  _350
REMARK  139  A    between atoms: _352  and  _354
REMARK  140  A    between atoms: _354  and  _355
REMARK  141  A    between atoms: _358  and  _360
REMARK  142  A    between atoms: _360  and  _361
REMARK  143  A    between atoms: _360  and  _363
REMARK  144  A    between atoms: _363  and  _364
REMARK  145  A    between atoms: _367  and  _369
REMARK  146  A    between atoms: _369  and  _370
REMARK  147  A    between atoms: _369  and  _372
REMARK  148  A    between atoms: _372  and  _373
REMARK  149  A    between atoms: _376  and  _378
REMARK  150  A    between atoms: _378  and  _379
REMARK  151  A    between atoms: _378  and  _381
REMARK  152  A    between atoms: _381  and  _382
REMARK  153  A    between atoms: _385  and  _387
REMARK  154  A    between atoms: _387  and  _388
REMARK  155  A    between atoms: _387  and  _390
REMARK  156  A    between atoms: _393  and  _395
REMARK  157  A    between atoms: _395  and  _396
REMARK  158  A    between atoms: _395  and  _398
REMARK  159  A    between atoms: _398  and  _399
REMARK  160  A    between atoms: _399  and  _400
REMARK  161  A    between atoms: _400  and  _401
REMARK  162  A    between atoms: _401  and  _402
REMARK  163  A    between atoms: _406  and  _408
REMARK  164  A    between atoms: _408  and  _409
REMARK  165  A    between atoms: _408  and  _411
REMARK  166  A    between atoms: _411  and  _412
REMARK  167  A    between atoms: _412  and  _413
REMARK  168  A    between atoms: _415  and  _417
REMARK  169  A    between atoms: _417  and  _418
REMARK  170  A    between atoms: _417  and  _420
REMARK  171  A    between atoms: _420  and  _421
REMARK  172  A    between atoms: _424  and  _426
REMARK  173  A    between atoms: _426  and  _427
REMARK  174  A    between atoms: _429  and  _431
REMARK  175  A    between atoms: _431  and  _432
REMARK  176  A    between atoms: _434  and  _436
REMARK  177  A    between atoms: _436  and  _437
REMARK  178  A    between atoms: _436  and  _439
REMARK  179  A    between atoms: _439  and  _440
REMARK  180  A    between atoms: _443  and  _445
REMARK  181  A    between atoms: _445  and  _446
REMARK  182  A    between atoms: _448  and  _450
REMARK  183  A    between atoms: _450  and  _451
REMARK  184  A    between atoms: _453  and  _455
REMARK  185  A    between atoms: _455  and  _456
REMARK  186  A    between atoms: _455  and  _458
REMARK  187  A    between atoms: _458  and  _459
REMARK  188  A    between atoms: _465  and  _467
REMARK  189  A    between atoms: _467  and  _468
REMARK  190  A    between atoms: _467  and  _470
REMARK  191  A    between atoms: _470  and  _471
REMARK  192  A    between atoms: _474  and  _476
REMARK  193  A    between atoms: _476  and  _477
REMARK  194  A    between atoms: _476  and  _479
REMARK  195  A    between atoms: _482  and  _484
REMARK  196  A    between atoms: _484  and  _485
REMARK  197  A    between atoms: _484  and  _487
REMARK  198  A    between atoms: _487  and  _488
REMARK  199  A    between atoms: _491  and  _493
REMARK  200  A    between atoms: _493  and  _494
REMARK  201  A    between atoms: _493  and  _496
REMARK  202  A    between atoms: _496  and  _497
REMARK  203  A    between atoms: _501  and  _502
REMARK  204  A    between atoms: _507  and  _509
REMARK  205  A    between atoms: _509  and  _510
REMARK  206  A    between atoms: _509  and  _512
REMARK  207  A    between atoms: _515  and  _517
REMARK  208  A    between atoms: _517  and  _518
REMARK  209  A    between atoms: _517  and  _520
REMARK  210  A    between atoms: _520  and  _521
REMARK  211  A    between atoms: _526  and  _528
REMARK  212  A    between atoms: _528  and  _529
REMARK  213  A    between atoms: _528  and  _531
REMARK  214  A    between atoms: _531  and  _532
REMARK  215  A    between atoms: _535  and  _537
REMARK  216  A    between atoms: _537  and  _538
REMARK  217  A    between atoms: _537  and  _540
REMARK  218  A    between atoms: _540  and  _541
REMARK  219  A    between atoms: _544  and  _546
REMARK  220  A    between atoms: _546  and  _547
REMARK  221  A    between atoms: _549  and  _551
REMARK  222  A    between atoms: _551  and  _552
REMARK  223  A    between atoms: _551  and  _554
REMARK  224  A    between atoms: _554  and  _555
REMARK  225  A    between atoms: _555  and  _556
REMARK  226  A    between atoms: _556  and  _557
REMARK  227  A    between atoms: _566  and  _568
REMARK  228  A    between atoms: _568  and  _569
REMARK  229  A    between atoms: _568  and  _571
REMARK  230  A    between atoms: _571  and  _572
REMARK                            x       y       z     vdW  Elec       q    Type
REMARK                         _______ _______ _______ _____ _____    ______ ____
ROOT
ATOM      1  C   GLY A   5      21.332  35.140  11.167  0.00  0.00    +0.243 C 
ATOM      2  N   ILE A   6      21.887  33.954  10.974  0.00  0.00    -0.297 N 
ATOM      3  H   ILE A   6      21.683  33.172  11.628  0.00  0.00    +0.150 HD
ATOM      4  O   GLY A   5      21.644  36.126  10.503  0.00  0.00    -0.273 OA
ENDROOT
BRANCH   2   5
ATOM      5  CA  ILE A   6      22.783  33.745   9.846  0.00  0.00    +0.149 C 
BRANCH   5   6
ATOM      6  C   ILE A   6      22.008  34.026   8.551  0.00  0.00    +0.241 C 
ATOM      7  O   ILE A   6      20.905  33.523   8.355  0.00  0.00    -0.273 OA
ATOM      8  N   GLY A   7      22.576  34.870   7.699  0.00  0.00    -0.295 N 
ATOM      9  H   GLY A   7      23.501  35.281   7.939  0.00  0.00    +0.150 HD
BRANCH   8  10
ATOM     10  CA  GLY A   7      21.947  35.239   6.441  0.00  0.00    +0.176 C 
BRANCH  10  11
ATOM     11  C   GLY A   7      21.306  36.606   6.472  0.00  0.00    +0.243 C 
ATOM     12  N   GLY A   8      20.934  37.088   7.651  0.00  0.00    -0.295 N 
ATOM     13  H   GLY A   8      21.127  36.531   8.508  0.00  0.00    +0.150 HD
ATOM     14  O   GLY A   7      21.132  37.213   5.429  0.00  0.00    -0.273 OA
BRANCH  12  15
ATOM     15  CA  GLY A   8      20.263  38.375   7.779  0.00  0.00    +0.176 C 
BRANCH  15  16
ATOM     16  C   GLY A   8      18.968  38.273   8.557  0.00  0.00    +0.243 C 
ATOM     17  O   GLY A   8      18.815  37.401   9.415  0.00  0.00    -0.273 OA
ATOM     18  N   PHE A   9      18.047  39.187   8.277  0.00  0.00    -0.297 N 
ATOM     19  H   PHE A   9      18.209  39.838   7.482  0.00  0.00    +0.150 HD
BRANCH  18  20
ATOM     20  CA  PHE A   9      16.815  39.308   9.048  0.00  0.00    +0.153 C 
BRANCH  20  21
ATOM     21  C   PHE A   9      15.594  38.780   8.307  0.00  0.00    +0.241 C 
ATOM     22  N   ILE A  10      14.608  38.320   9.073  0.00  0.00    -0.298 N 
ATOM     23  H   ILE A  10      14.793  38.136  10.080  0.00  0.00    +0.150 HD
ATOM     24  O   PHE A   9      15.543  38.800   7.076  0.00  0.00    -0.273 OA
BRANCH  22  25
ATOM     25  CA  ILE A  10      13.276  38.067   8.538  0.00  0.00    +0.137 C 
BRANCH  25  26
ATOM     26  C   ILE A  10      12.238  38.882   9.299  0.00  0.00    +0.227 C 
ATOM     27  O   ILE A  10      12.427  39.232  10.476  0.00  0.00    -0.286 OA
ENDBRANCH  25  26
BRANCH  25  28
ATOM     28  CB  ILE A  10      12.863  36.571   8.519  0.00  0.00    +0.026 C 
ATOM     29  CG2 ILE A  10      13.792  35.799   7.594  0.00  0.00    +0.002 C 
BRANCH  28  30
ATOM     30  CG1 ILE A  10      12.802  35.956   9.918  0.00  0.00    +0.002 C 
ATOM     31  CD1 ILE A  10      12.059  34.630   9.979  0.00  0.00    +0.000 C 
ENDBRANCH  28  30
ENDBRANCH  25  28
ENDBRANCH  22  25
ENDBRANCH  20  21
BRANCH  20  32
ATOM     32  CB  PHE A   9      16.569  40.771   9.447  0.00  0.00    +0.055 C 
BRANCH  32  33
ATOM     33  CG  PHE A   9      17.459  41.259  10.554  0.00  0.00    -0.020 A 
ATOM     34  CD2 PHE A   9      16.953  41.485  11.821  0.00  0.00    -0.004 A 
ATOM     35  CE2 PHE A   9      17.760  41.916  12.854  0.00  0.00    -0.000 A 
ATOM     36  CZ  PHE A   9      19.106  42.122  12.626  0.00  0.00    -0.000 A 
ATOM     37  CE1 PHE A   9      19.620  41.926  11.373  0.00  0.00    -0.000 A 
ATOM     38  CD1 PHE A   9      18.814  41.490  10.338  0.00  0.00    -0.004 A 
ENDBRANCH  32  33
ENDBRANCH  20  32
ENDBRANCH  18  20
ENDBRANCH  15  16
ENDBRANCH  12  15
ENDBRANCH  10  11
ENDBRANCH   8  10
ENDBRANCH   5   6
BRANCH   5  39
ATOM     39  CB  ILE A   6      23.389  32.332   9.877  0.00  0.00    +0.027 C 
ATOM     40  CG2 ILE A   6      23.901  31.917   8.485  0.00  0.00    +0.002 C 
BRANCH  39  41
ATOM     41  CG1 ILE A   6      24.569  32.310  10.852  0.00  0.00    +0.002 C 
ATOM     42  CD1 ILE A   6      25.064  30.928  11.178  0.00  0.00    +0.000 C 
ENDBRANCH  39  41
ENDBRANCH   5  39
ENDBRANCH   2   5
BRANCH   1  43
ATOM     43  CA  GLY A   5      20.282  35.232  12.249  0.00  0.00    +0.176 C 
BRANCH  43  46
ATOM     44  C   GLY A   4      18.952  37.055  13.129  0.00  0.00    +0.243 C 
ATOM     45  O   GLY A   4      19.060  36.623  14.269  0.00  0.00    -0.273 OA
ATOM     46  N   GLY A   5      19.473  36.433  12.085  0.00  0.00    -0.295 N 
ATOM     47  H   GLY A   5      19.302  36.807  11.130  0.00  0.00    +0.150 HD
BRANCH  44  48
ATOM     48  CA  GLY A   4      18.298  38.385  12.840  0.00  0.00    +0.176 C 
BRANCH  48  50
ATOM     49  C   ILE A   3      15.881  38.659  13.014  0.00  0.00    +0.241 C 
ATOM     50  N   GLY A   4      17.078  38.613  13.587  0.00  0.00    -0.295 N 
ATOM     51  H   GLY A   4      17.142  38.746  14.616  0.00  0.00    +0.150 HD
ATOM     52  O   ILE A   3      15.660  38.356  11.842  0.00  0.00    -0.273 OA
BRANCH  49  53
ATOM     53  CA  ILE A   3      14.751  39.122  13.914  0.00  0.00    +0.149 C 
BRANCH  53  56
ATOM     54  C   MET A   2      13.367  41.093  13.577  0.00  0.00    +0.241 C 
ATOM     55  O   MET A   2      13.642  41.539  14.690  0.00  0.00    -0.273 OA
ATOM     56  N   ILE A   3      13.785  39.907  13.150  0.00  0.00    -0.297 N 
ATOM     57  H   ILE A   3      13.417  39.530  12.253  0.00  0.00    +0.150 HD
BRANCH  54  58
ATOM     58  CA  MET A   2      12.457  41.875  12.645  0.00  0.00    +0.149 C 
BRANCH  58  60
ATOM     59  C   LYS A   1      10.112  42.072  13.327  0.00  0.00    +0.238 C 
ATOM     60  N   MET A   2      11.385  42.426  13.462  0.00  0.00    -0.297 N 
ATOM     61  H   MET A   2      11.628  43.131  14.187  0.00  0.00    +0.150 HD
ATOM     62  O   LYS A   1       9.686  41.397  12.386  0.00  0.00    -0.274 OA
BRANCH  59  63
ATOM     63  CA  LYS A   1       9.181  42.569  14.419  0.00  0.00    +0.145 C 
BRANCH  63  64
ATOM     64  N   LYS A   1       7.857  42.674  13.849  0.00  0.00    -0.238 NA
ATOM     65  H   LYS A   1       7.595  42.039  13.068  0.00  0.00    +0.142 HD
ENDBRANCH  63  64
BRANCH  63  66
ATOM     66  CB  LYS A   1       9.162  41.591  15.597  0.00  0.00    +0.026 C 
BRANCH  66  67
ATOM     67  CG  LYS A   1      10.402  41.587  16.482  0.00  0.00    -0.000 C 
BRANCH  67  68
ATOM     68  CD  LYS A   1      10.266  40.615  17.647  0.00  0.00    -0.024 C 
BRANCH  68  69
ATOM     69  CE  LYS A   1      11.562  40.476  18.418  0.00  0.00    -0.086 C 
BRANCH  69  70
ATOM     70  NZ  LYS A   1      11.824  41.638  19.295  0.00  0.00    +0.380 N 
ATOM     71  HZ1 LYS A   1      11.049  41.734  19.982  0.00  0.00    -0.089 HD
ATOM     72  HZ2 LYS A   1      12.722  41.494  19.800  0.00  0.00    -0.089 HD
ATOM     73  HZ3 LYS A   1      11.885  42.500  18.717  0.00  0.00    -0.089 HD
ENDBRANCH  69  70
ENDBRANCH  68  69
ENDBRANCH  67  68
ENDBRANCH  66  67
ENDBRANCH  63  66
ENDBRANCH  59  63
ENDBRANCH  58  60
BRANCH  58  74
ATOM     74  CB  MET A   2      13.242  43.006  11.976  0.00  0.00    +0.041 C 
BRANCH  74  75
ATOM     75  CG  MET A   2      12.490  43.681  10.843  0.00  0.00    +0.060 C 
BRANCH  75  76
ATOM     76  SD  MET A   2      12.499  42.700   9.326  0.00  0.00    -0.139 S 
ATOM     77  CE  MET A   2      14.013  43.272   8.563  0.00  0.00    +0.069 C 
ENDBRANCH  75  76
ENDBRANCH  74  75
ENDBRANCH  58  74
ENDBRANCH  54  58
ENDBRANCH  53  56
BRANCH  53  78
ATOM     78  CB  ILE A   3      14.128  37.901  14.631  0.00  0.00    +0.027 C 
ATOM     79  CG2 ILE A   3      13.176  38.363  15.735  0.00  0.00    +0.002 C 
BRANCH  78  80
ATOM     80  CG1 ILE A   3      13.402  36.964  13.660  0.00  0.00    +0.002 C 
ATOM     81  CD1 ILE A   3      13.000  35.624  14.302  0.00  0.00    +0.000 C 
ENDBRANCH  78  80
ENDBRANCH  53  78
ENDBRANCH  49  53
ENDBRANCH  48  50
ENDBRANCH  44  48
ENDBRANCH  43  46
ENDBRANCH   1  43
TORSDOF 36
REMARK  Name = ../refined-set-2016/3o9i/3o9i_pocket.pdb
REMARK  230 active torsions:
REMARK  status: ('A' for Active; 'I' for Inactive)
REMARK    1  A    between atoms: _1  and  _3
REMARK    2  A    between atoms: _3  and  _4
REMARK    3  A    between atoms: _3  and  _6
REMARK    4  A    between atoms: _6  and  _7
REMARK    5  A    between atoms: _7  and  _8
REMARK    6  A    between atoms: _8  and  _9
REMARK    7  A    between atoms: _18  and  _20
REMARK    8  A    between atoms: _20  and  _21
REMARK    9  A    between atoms: _20  and  _23
REMARK   10  A    between atoms: _23  and  _24
REMARK   11  A    between atoms: _27  and  _29
REMARK   12  A    between atoms: _29  and  _30
REMARK   13  A    between atoms: _29  and  _32
REMARK   14  A    between atoms: _32  and  _33
REMARK   15  A    between atoms: _36  and  _38
REMARK   16  A    between atoms: _38  and  _39
REMARK   17  A    between atoms: _38  and  _41
REMARK   18  A    between atoms: _41  and  _42
REMARK   19  A    between atoms: _45  and  _47
REMARK   20  A    between atoms: _47  and  _48
REMARK   21  A    between atoms: _47  and  _50
REMARK   22  A    between atoms: _50  and  _51
REMARK   23  A    between atoms: _54  and  _56
REMARK   24  A    between atoms: _56  and  _57
REMARK   25  A    between atoms: _56  and  _59
REMARK   26  A    between atoms: _59  and  _60
REMARK   27  A    between atoms: _63  and  _65
REMARK   28  A    between atoms: _65  and  _66
REMARK   29  A    between atoms: _68  and  _70
REMARK   30  A    between atoms: _70  and  _71
REMARK   31  A    between atoms: _74  and  _76
REMARK   32  A    between atoms: _76  and  _77
REMARK   33  A    between atoms: _76  and  _79
REMARK   34  A    between atoms: _79  and  _80
REMARK   35  A    between atoms: _83  and  _85
REMARK   36  A    between atoms: _85  and  _86
REMARK   37  A    between atoms: _85  and  _88
REMARK   38  A    between atoms: _88  and  _89
REMARK   39  A    between atoms: _92  and  _94
REMARK   40  A    between atoms: _94  and  _95
REMARK   41  A    between atoms: _94  and  _97
REMARK   42  A    between atoms: _97  and  _98
REMARK   43  A    between atoms: _101  and  _103
REMARK   44  A    between atoms: _103  and  _104
REMARK   45  A    between atoms: _103  and  _106
REMARK   46  A    between atoms: _109  and  _111
REMARK   47  A    between atoms: _111  and  _112
REMARK   48  A    between atoms: _111  and  _114
REMARK   49  A    between atoms: _114  and  _115
REMARK   50  A    between atoms: _118  and  _120
REMARK   51  A    between atoms: _120  and  _121
REMARK   52  A    between atoms: _123  and  _125
REMARK   53  A    between atoms: _125  and  _126
REMARK   54  A    between atoms: _128  and  _130
REMARK   55  A    between atoms: _130  and  _131
REMARK   56  A    between atoms: _130  and  _133
REMARK   57  A    between atoms: _133  and  _134
REMARK   58  A    between atoms: _137  and  _139
REMARK   59  A    between atoms: _139  and  _140
REMARK   60  A    between atoms: _142  and  _144
REMARK   61  A    between atoms: _144  and  _145
REMARK   62  A    between atoms: _147  and  _149
REMARK   63  A    between atoms: _149  and  _150
REMARK   64  A    between atoms: _149  and  _152
REMARK   65  A    between atoms: _152  and  _153
REMARK   66  A    between atoms: _159  and  _161
REMARK   67  A    between atoms: _161  and  _162
REMARK   68  A    between atoms: _161  and  _164
REMARK   69  A    between atoms: _164  and  _165
REMARK   70  A    between atoms: _168  and  _170
REMARK   71  A    between atoms: _170  and  _171
REMARK   72  A    between atoms: _170  and  _173
REMARK   73  A    between atoms: _176  and  _178
REMARK   74  A    between atoms: _178  and  _179
REMARK   75  A    between atoms: _178  and  _181
REMARK   76  A    between atoms: _181  and  _182
REMARK   77  A    between atoms: _186  and  _187
REMARK   78  A    between atoms: _192  and  _194
REMARK   79  A    between atoms: _194  and  _195
REMARK   80  A    between atoms: _194  and  _197
REMARK   81  A    between atoms: _197  and  _198
REMARK   82  A    between atoms: _202  and  _203
REMARK   83  A    between atoms: _208  and  _210
REMARK   84  A    between atoms: _210  and  _211
REMARK   85  A    between atoms: _210  and  _213
REMARK   86  A    between atoms: _216  and  _218
REMARK   87  A    between atoms: _218  and  _219
REMARK   88  A    between atoms: _218  and  _221
REMARK   89  A    between atoms: _221  and  _222
REMARK   90  A    between atoms: _227  and  _229
REMARK   91  A    between atoms: _229  and  _230
REMARK   92  A    between atoms: _229  and  _232
REMARK   93  A    between atoms: _232  and  _233
REMARK   94  A    between atoms: _236  and  _238
REMARK   95  A    between atoms: _238  and  _239
REMARK   96  A    between atoms: _238  and  _241
REMARK   97  A    between atoms: _241  and  _242
REMARK   98  A    between atoms: _245  and  _247
REMARK   99  A    between atoms: _247  and  _248
REMARK  100  A    between atoms: _250  and  _252
REMARK  101  A    between atoms: _252  and  _253
REMARK  102  A    between atoms: _252  and  _255
REMARK  103  A    between atoms: _255  and  _256
REMARK  104  A    between atoms: _256  and  _257
REMARK  105  A    between atoms: _257  and  _258
REMARK  106  A    between atoms: _267  and  _269
REMARK  107  A    between atoms: _269  and  _270
REMARK  108  A    between atoms: _269  and  _272
REMARK  109  A    between atoms: _272  and  _273
REMARK  110  A    between atoms: _278  and  _280
REMARK  111  A    between atoms: _280  and  _281
REMARK  112  A    between atoms: _280  and  _283
REMARK  113  A    between atoms: _283  and  _284
REMARK  114  A    between atoms: _284  and  _285
REMARK  115  A    between atoms: _285  and  _286
REMARK  116  A    between atoms: _296  and  _297
REMARK  117  A    between atoms: _302  and  _304
REMARK  118  A    between atoms: _304  and  _305
REMARK  119  A    between atoms: _304  and  _307
REMARK  120  A    between atoms: _307  and  _308
REMARK  121  A    between atoms: _311  and  _313
REMARK  122  A    between atoms: _313  and  _314
REMARK  123  A    between atoms: _313  and  _316
REMARK  124  A    between atoms: _316  and  _317
REMARK  125  A    between atoms: _320  and  _322
REMARK  126  A    between atoms: _322  and  _323
REMARK  127  A    between atoms: _322  and  _325
REMARK  128  A    between atoms: _325  and  _326
REMARK  129  A    between atoms: _329  and  _331
REMARK  130  A    between atoms: _331  and  _332
REMARK  131  A    between atoms: _331  and  _334
REMARK  132  A    between atoms: _334  and  _335
REMARK  133  A    between atoms: _338  and  _340
REMARK  134  A    between atoms: _340  and  _341
REMARK  135  A    between atoms: _340  and  _343
REMARK  136  A    between atoms: _343  and  _344
REMARK  137  A    between atoms: _347  and  _349
REMARK  138  A    between atoms: _349  and  _350
REMARK  139  A    between atoms: _352  and  _354
REMARK  140  A    between atoms: _354  and  _355
REMARK  141  A    between atoms: _358  and  _360
REMARK  142  A    between atoms: _360  and  _361
REMARK  143  A    between atoms: _360  and  _363
REMARK  144  A    between atoms: _363  and  _364
REMARK  145  A    between atoms: _367  and  _369
REMARK  146  A    between atoms: _369  and  _370
REMARK  147  A    between atoms: _369  and  _372
REMARK  148  A    between atoms: _372  and  _373
REMARK  149  A    between atoms: _376  and  _378
REMARK  150  A    between atoms: _378  and  _379
REMARK  151  A    between atoms: _378  and  _381
REMARK  152  A    between atoms: _381  and  _382
REMARK  153  A    between atoms: _385  and  _387
REMARK  154  A    between atoms: _387  and  _388
REMARK  155  A    between atoms: _387  and  _390
REMARK  156  A    between atoms: _393  and  _395
REMARK  157  A    between atoms: _395  and  _396
REMARK  158  A    between atoms: _395  and  _398
REMARK  159  A    between atoms: _398  and  _399
REMARK  160  A    between atoms: _399  and  _400
REMARK  161  A    between atoms: _400  and  _401
REMARK  162  A    between atoms: _401  and  _402
REMARK  163  A    between atoms: _406  and  _408
REMARK  164  A    between atoms: _408  and  _409
REMARK  165  A    between atoms: _408  and  _411
REMARK  166  A    between atoms: _411  and  _412
REMARK  167  A    between atoms: _412  and  _413
REMARK  168  A    between atoms: _415  and  _417
REMARK  169  A    between atoms: _417  and  _418
REMARK  170  A    between atoms: _417  and  _420
REMARK  171  A    between atoms: _420  and  _421
REMARK  172  A    between atoms: _424  and  _426
REMARK  173  A    between atoms: _426  and  _427
REMARK  174  A    between atoms: _429  and  _431
REMARK  175  A    between atoms: _431  and  _432
REMARK  176  A    between atoms: _434  and  _436
REMARK  177  A    between atoms: _436  and  _437
REMARK  178  A    between atoms: _436  and  _439
REMARK  179  A    between atoms: _439  and  _440
REMARK  180  A    between atoms: _443  and  _445
REMARK  181  A    between atoms: _445  and  _446
REMARK  182  A    between atoms: _448  and  _450
REMARK  183  A    between atoms: _450  and  _451
REMARK  184  A    between atoms: _453  and  _455
REMARK  185  A    between atoms: _455  and  _456
REMARK  186  A    between atoms: _455  and  _458
REMARK  187  A    between atoms: _458  and  _459
REMARK  188  A    between atoms: _465  and  _467
REMARK  189  A    between atoms: _467  and  _468
REMARK  190  A    between atoms: _467  and  _470
REMARK  191  A    between atoms: _470  and  _471
REMARK  192  A    between atoms: _474  and  _476
REMARK  193  A    between atoms: _476  and  _477
REMARK  194  A    between atoms: _476  and  _479
REMARK  195  A    between atoms: _482  and  _484
REMARK  196  A    between atoms: _484  and  _485
REMARK  197  A    between atoms: _484  and  _487
REMARK  198  A    between atoms: _487  and  _488
REMARK  199  A    between atoms: _491  and  _493
REMARK  200  A    between atoms: _493  and  _494
REMARK  201  A    between atoms: _493  and  _496
REMARK  202  A    between atoms: _496  and  _497
REMARK  203  A    between atoms: _501  and  _502
REMARK  204  A    between atoms: _507  and  _509
REMARK  205  A    between atoms: _509  and  _510
REMARK  206  A    between atoms: _509  and  _512
REMARK  207  A    between atoms: _515  and  _517
REMARK  208  A    between atoms: _517  and  _518
REMARK  209  A    between atoms: _517  and  _520
REMARK  210  A    between atoms: _520  and  _521
REMARK  211  A    between atoms: _526  and  _528
REMARK  212  A    between atoms: _528  and  _529
REMARK  213  A    between atoms: _528  and  _531
REMARK  214  A    between atoms: _531  and  _532
REMARK  215  A    between atoms: _535  and  _537
REMARK  216  A    between atoms: _537  and  _538
REMARK  217  A    between atoms: _537  and  _540
REMARK  218  A    between atoms: _540  and  _541
REMARK  219  A    between atoms: _544  and  _546
REMARK  220  A    between atoms: _546  and  _547
REMARK  221  A    between atoms: _549  and  _551
REMARK  222  A    between atoms: _551  and  _552
REMARK  223  A    between atoms: _551  and  _554
REMARK  224  A    between atoms: _554  and  _555
REMARK  225  A    between atoms: _555  and  _556
REMARK  226  A    between atoms: _556  and  _557
REMARK  227  A    between atoms: _566  and  _568
REMARK  228  A    between atoms: _568  and  _569
REMARK  229  A    between atoms: _568  and  _571
REMARK  230  A    between atoms: _571  and  _572
REMARK                            x       y       z     vdW  Elec       q    Type
REMARK                         _______ _______ _______ _____ _____    ______ ____
ROOT
ATOM      1  CA  VAL A   1       7.750  38.198  11.771  0.00  0.00    +0.133 C 
ENDROOT
BRANCH   1   2
ATOM      2  CB  VAL A   1       8.491  37.348  12.824  0.00  0.00    +0.023 C 
ATOM      3  CG2 VAL A   1       9.112  38.233  13.898  0.00  0.00    +0.002 C 
ATOM      4  CG1 VAL A   1       9.548  36.488  12.160  0.00  0.00    +0.002 C 
ENDBRANCH   1   2
BRANCH   1   5
ATOM      5  N   VAL A   1       8.658  39.100  11.058  0.00  0.00    -0.239 NA
ATOM      6  H   VAL A   1       9.005  39.951  11.544  0.00  0.00    +0.142 HD
ENDBRANCH   1   5
BRANCH   1   7
ATOM      7  C   VAL A   1       6.621  38.968  12.440  0.00  0.00    +0.224 C 
ATOM      8  O   VAL A   1       6.679  40.194  12.597  0.00  0.00    -0.287 OA
ENDBRANCH   1   7
TORSDOF 3
REMARK  Name = ../refined-set-2016/3o9i/3o9i_pocket.pdb
REMARK  230 active torsions:
REMARK  status: ('A' for Active; 'I' for Inactive)
REMARK    1  A    between atoms: _1  and  _3
REMARK    2  A    between atoms: _3  and  _4
REMARK    3  A    between atoms: _3  and  _6
REMARK    4  A    between atoms: _6  and  _7
REMARK    5  A    between atoms: _7  and  _8
REMARK    6  A    between atoms: _8  and  _9
REMARK    7  A    between atoms: _18  and  _20
REMARK    8  A    between atoms: _20  and  _21
REMARK    9  A    between atoms: _20  and  _23
REMARK   10  A    between atoms: _23  and  _24
REMARK   11  A    between atoms: _27  and  _29
REMARK   12  A    between atoms: _29  and  _30
REMARK   13  A    between atoms: _29  and  _32
REMARK   14  A    between atoms: _32  and  _33
REMARK   15  A    between atoms: _36  and  _38
REMARK   16  A    between atoms: _38  and  _39
REMARK   17  A    between atoms: _38  and  _41
REMARK   18  A    between atoms: _41  and  _42
REMARK   19  A    between atoms: _45  and  _47
REMARK   20  A    between atoms: _47  and  _48
REMARK   21  A    between atoms: _47  and  _50
REMARK   22  A    between atoms: _50  and  _51
REMARK   23  A    between atoms: _54  and  _56
REMARK   24  A    between atoms: _56  and  _57
REMARK   25  A    between atoms: _56  and  _59
REMARK   26  A    between atoms: _59  and  _60
REMARK   27  A    between atoms: _63  and  _65
REMARK   28  A    between atoms: _65  and  _66
REMARK   29  A    between atoms: _68  and  _70
REMARK   30  A    between atoms: _70  and  _71
REMARK   31  A    between atoms: _74  and  _76
REMARK   32  A    between atoms: _76  and  _77
REMARK   33  A    between atoms: _76  and  _79
REMARK   34  A    between atoms: _79  and  _80
REMARK   35  A    between atoms: _83  and  _85
REMARK   36  A    between atoms: _85  and  _86
REMARK   37  A    between atoms: _85  and  _88
REMARK   38  A    between atoms: _88  and  _89
REMARK   39  A    between atoms: _92  and  _94
REMARK   40  A    between atoms: _94  and  _95
REMARK   41  A    between atoms: _94  and  _97
REMARK   42  A    between atoms: _97  and  _98
REMARK   43  A    between atoms: _101  and  _103
REMARK   44  A    between atoms: _103  and  _104
REMARK   45  A    between atoms: _103  and  _106
REMARK   46  A    between atoms: _109  and  _111
REMARK   47  A    between atoms: _111  and  _112
REMARK   48  A    between atoms: _111  and  _114
REMARK   49  A    between atoms: _114  and  _115
REMARK   50  A    between atoms: _118  and  _120
REMARK   51  A    between atoms: _120  and  _121
REMARK   52  A    between atoms: _123  and  _125
REMARK   53  A    between atoms: _125  and  _126
REMARK   54  A    between atoms: _128  and  _130
REMARK   55  A    between atoms: _130  and  _131
REMARK   56  A    between atoms: _130  and  _133
REMARK   57  A    between atoms: _133  and  _134
REMARK   58  A    between atoms: _137  and  _139
REMARK   59  A    between atoms: _139  and  _140
REMARK   60  A    between atoms: _142  and  _144
REMARK   61  A    between atoms: _144  and  _145
REMARK   62  A    between atoms: _147  and  _149
REMARK   63  A    between atoms: _149  and  _150
REMARK   64  A    between atoms: _149  and  _152
REMARK   65  A    between atoms: _152  and  _153
REMARK   66  A    between atoms: _159  and  _161
REMARK   67  A    between atoms: _161  and  _162
REMARK   68  A    between atoms: _161  and  _164
REMARK   69  A    between atoms: _164  and  _165
REMARK   70  A    between atoms: _168  and  _170
REMARK   71  A    between atoms: _170  and  _171
REMARK   72  A    between atoms: _170  and  _173
REMARK   73  A    between atoms: _176  and  _178
REMARK   74  A    between atoms: _178  and  _179
REMARK   75  A    between atoms: _178  and  _181
REMARK   76  A    between atoms: _181  and  _182
REMARK   77  A    between atoms: _186  and  _187
REMARK   78  A    between atoms: _192  and  _194
REMARK   79  A    between atoms: _194  and  _195
REMARK   80  A    between atoms: _194  and  _197
REMARK   81  A    between atoms: _197  and  _198
REMARK   82  A    between atoms: _202  and  _203
REMARK   83  A    between atoms: _208  and  _210
REMARK   84  A    between atoms: _210  and  _211
REMARK   85  A    between atoms: _210  and  _213
REMARK   86  A    between atoms: _216  and  _218
REMARK   87  A    between atoms: _218  and  _219
REMARK   88  A    between atoms: _218  and  _221
REMARK   89  A    between atoms: _221  and  _222
REMARK   90  A    between atoms: _227  and  _229
REMARK   91  A    between atoms: _229  and  _230
REMARK   92  A    between atoms: _229  and  _232
REMARK   93  A    between atoms: _232  and  _233
REMARK   94  A    between atoms: _236  and  _238
REMARK   95  A    between atoms: _238  and  _239
REMARK   96  A    between atoms: _238  and  _241
REMARK   97  A    between atoms: _241  and  _242
REMARK   98  A    between atoms: _245  and  _247
REMARK   99  A    between atoms: _247  and  _248
REMARK  100  A    between atoms: _250  and  _252
REMARK  101  A    between atoms: _252  and  _253
REMARK  102  A    between atoms: _252  and  _255
REMARK  103  A    between atoms: _255  and  _256
REMARK  104  A    between atoms: _256  and  _257
REMARK  105  A    between atoms: _257  and  _258
REMARK  106  A    between atoms: _267  and  _269
REMARK  107  A    between atoms: _269  and  _270
REMARK  108  A    between atoms: _269  and  _272
REMARK  109  A    between atoms: _272  and  _273
REMARK  110  A    between atoms: _278  and  _280
REMARK  111  A    between atoms: _280  and  _281
REMARK  112  A    between atoms: _280  and  _283
REMARK  113  A    between atoms: _283  and  _284
REMARK  114  A    between atoms: _284  and  _285
REMARK  115  A    between atoms: _285  and  _286
REMARK  116  A    between atoms: _296  and  _297
REMARK  117  A    between atoms: _302  and  _304
REMARK  118  A    between atoms: _304  and  _305
REMARK  119  A    between atoms: _304  and  _307
REMARK  120  A    between atoms: _307  and  _308
REMARK  121  A    between atoms: _311  and  _313
REMARK  122  A    between atoms: _313  and  _314
REMARK  123  A    between atoms: _313  and  _316
REMARK  124  A    between atoms: _316  and  _317
REMARK  125  A    between atoms: _320  and  _322
REMARK  126  A    between atoms: _322  and  _323
REMARK  127  A    between atoms: _322  and  _325
REMARK  128  A    between atoms: _325  and  _326
REMARK  129  A    between atoms: _329  and  _331
REMARK  130  A    between atoms: _331  and  _332
REMARK  131  A    between atoms: _331  and  _334
REMARK  132  A    between atoms: _334  and  _335
REMARK  133  A    between atoms: _338  and  _340
REMARK  134  A    between atoms: _340  and  _341
REMARK  135  A    between atoms: _340  and  _343
REMARK  136  A    between atoms: _343  and  _344
REMARK  137  A    between atoms: _347  and  _349
REMARK  138  A    between atoms: _349  and  _350
REMARK  139  A    between atoms: _352  and  _354
REMARK  140  A    between atoms: _354  and  _355
REMARK  141  A    between atoms: _358  and  _360
REMARK  142  A    between atoms: _360  and  _361
REMARK  143  A    between atoms: _360  and  _363
REMARK  144  A    between atoms: _363  and  _364
REMARK  145  A    between atoms: _367  and  _369
REMARK  146  A    between atoms: _369  and  _370
REMARK  147  A    between atoms: _369  and  _372
REMARK  148  A    between atoms: _372  and  _373
REMARK  149  A    between atoms: _376  and  _378
REMARK  150  A    between atoms: _378  and  _379
REMARK  151  A    between atoms: _378  and  _381
REMARK  152  A    between atoms: _381  and  _382
REMARK  153  A    between atoms: _385  and  _387
REMARK  154  A    between atoms: _387  and  _388
REMARK  155  A    between atoms: _387  and  _390
REMARK  156  A    between atoms: _393  and  _395
REMARK  157  A    between atoms: _395  and  _396
REMARK  158  A    between atoms: _395  and  _398
REMARK  159  A    between atoms: _398  and  _399
REMARK  160  A    between atoms: _399  and  _400
REMARK  161  A    between atoms: _400  and  _401
REMARK  162  A    between atoms: _401  and  _402
REMARK  163  A    between atoms: _406  and  _408
REMARK  164  A    between atoms: _408  and  _409
REMARK  165  A    between atoms: _408  and  _411
REMARK  166  A    between atoms: _411  and  _412
REMARK  167  A    between atoms: _412  and  _413
REMARK  168  A    between atoms: _415  and  _417
REMARK  169  A    between atoms: _417  and  _418
REMARK  170  A    between atoms: _417  and  _420
REMARK  171  A    between atoms: _420  and  _421
REMARK  172  A    between atoms: _424  and  _426
REMARK  173  A    between atoms: _426  and  _427
REMARK  174  A    between atoms: _429  and  _431
REMARK  175  A    between atoms: _431  and  _432
REMARK  176  A    between atoms: _434  and  _436
REMARK  177  A    between atoms: _436  and  _437
REMARK  178  A    between atoms: _436  and  _439
REMARK  179  A    between atoms: _439  and  _440
REMARK  180  A    between atoms: _443  and  _445
REMARK  181  A    between atoms: _445  and  _446
REMARK  182  A    between atoms: _448  and  _450
REMARK  183  A    between atoms: _450  and  _451
REMARK  184  A    between atoms: _453  and  _455
REMARK  185  A    between atoms: _455  and  _456
REMARK  186  A    between atoms: _455  and  _458
REMARK  187  A    between atoms: _458  and  _459
REMARK  188  A    between atoms: _465  and  _467
REMARK  189  A    between atoms: _467  and  _468
REMARK  190  A    between atoms: _467  and  _470
REMARK  191  A    between atoms: _470  and  _471
REMARK  192  A    between atoms: _474  and  _476
REMARK  193  A    between atoms: _476  and  _477
REMARK  194  A    between atoms: _476  and  _479
REMARK  195  A    between atoms: _482  and  _484
REMARK  196  A    between atoms: _484  and  _485
REMARK  197  A    between atoms: _484  and  _487
REMARK  198  A    between atoms: _487  and  _488
REMARK  199  A    between atoms: _491  and  _493
REMARK  200  A    between atoms: _493  and  _494
REMARK  201  A    between atoms: _493  and  _496
REMARK  202  A    between atoms: _496  and  _497
REMARK  203  A    between atoms: _501  and  _502
REMARK  204  A    between atoms: _507  and  _509
REMARK  205  A    between atoms: _509  and  _510
REMARK  206  A    between atoms: _509  and  _512
REMARK  207  A    between atoms: _515  and  _517
REMARK  208  A    between atoms: _517  and  _518
REMARK  209  A    between atoms: _517  and  _520
REMARK  210  A    between atoms: _520  and  _521
REMARK  211  A    between atoms: _526  and  _528
REMARK  212  A    between atoms: _528  and  _529
REMARK  213  A    between atoms: _528  and  _531
REMARK  214  A    between atoms: _531  and  _532
REMARK  215  A    between atoms: _535  and  _537
REMARK  216  A    between atoms: _537  and  _538
REMARK  217  A    between atoms: _537  and  _540
REMARK  218  A    between atoms: _540  and  _541
REMARK  219  A    between atoms: _544  and  _546
REMARK  220  A    between atoms: _546  and  _547
REMARK  221  A    between atoms: _549  and  _551
REMARK  222  A    between atoms: _551  and  _552
REMARK  223  A    between atoms: _551  and  _554
REMARK  224  A    between atoms: _554  and  _555
REMARK  225  A    between atoms: _555  and  _556
REMARK  226  A    between atoms: _556  and  _557
REMARK  227  A    between atoms: _566  and  _568
REMARK  228  A    between atoms: _568  and  _569
REMARK  229  A    between atoms: _568  and  _571
REMARK  230  A    between atoms: _571  and  _572
REMARK                            x       y       z     vdW  Elec       q    Type
REMARK                         _______ _______ _______ _____ _____    ______ ____
ROOT
ATOM      1  CA  LEU A   1       6.884  35.006  16.484  0.00  0.00    +0.133 C 
ENDROOT
BRANCH   1   2
ATOM      2  N   LEU A   1       6.650  34.231  17.682  0.00  0.00    -0.239 NA
ATOM      3  H   LEU A   1       7.360  33.523  17.957  0.00  0.00    +0.142 HD
ENDBRANCH   1   2
BRANCH   1   4
ATOM      4  C   LEU A   1       6.570  34.101  15.298  0.00  0.00    +0.224 C 
ATOM      5  O   LEU A   1       6.982  32.940  15.274  0.00  0.00    -0.287 OA
ENDBRANCH   1   4
BRANCH   1   6
ATOM      6  CB  LEU A   1       8.345  35.461  16.444  0.00  0.00    +0.025 C 
BRANCH   6   7
ATOM      7  CG  LEU A   1       8.885  36.165  17.696  0.00  0.00    +0.002 C 
ATOM      8  CD2 LEU A   1       8.064  37.393  18.060  0.00  0.00    +0.000 C 
ATOM      9  CD1 LEU A   1      10.336  36.544  17.453  0.00  0.00    +0.000 C 
ENDBRANCH   6   7
ENDBRANCH   1   6
TORSDOF 4
REMARK  Name = ../refined-set-2016/3o9i/3o9i_pocket.pdb
REMARK  230 active torsions:
REMARK  status: ('A' for Active; 'I' for Inactive)
REMARK    1  A    between atoms: _1  and  _3
REMARK    2  A    between atoms: _3  and  _4
REMARK    3  A    between atoms: _3  and  _6
REMARK    4  A    between atoms: _6  and  _7
REMARK    5  A    between atoms: _7  and  _8
REMARK    6  A    between atoms: _8  and  _9
REMARK    7  A    between atoms: _18  and  _20
REMARK    8  A    between atoms: _20  and  _21
REMARK    9  A    between atoms: _20  and  _23
REMARK   10  A    between atoms: _23  and  _24
REMARK   11  A    between atoms: _27  and  _29
REMARK   12  A    between atoms: _29  and  _30
REMARK   13  A    between atoms: _29  and  _32
REMARK   14  A    between atoms: _32  and  _33
REMARK   15  A    between atoms: _36  and  _38
REMARK   16  A    between atoms: _38  and  _39
REMARK   17  A    between atoms: _38  and  _41
REMARK   18  A    between atoms: _41  and  _42
REMARK   19  A    between atoms: _45  and  _47
REMARK   20  A    between atoms: _47  and  _48
REMARK   21  A    between atoms: _47  and  _50
REMARK   22  A    between atoms: _50  and  _51
REMARK   23  A    between atoms: _54  and  _56
REMARK   24  A    between atoms: _56  and  _57
REMARK   25  A    between atoms: _56  and  _59
REMARK   26  A    between atoms: _59  and  _60
REMARK   27  A    between atoms: _63  and  _65
REMARK   28  A    between atoms: _65  and  _66
REMARK   29  A    between atoms: _68  and  _70
REMARK   30  A    between atoms: _70  and  _71
REMARK   31  A    between atoms: _74  and  _76
REMARK   32  A    between atoms: _76  and  _77
REMARK   33  A    between atoms: _76  and  _79
REMARK   34  A    between atoms: _79  and  _80
REMARK   35  A    between atoms: _83  and  _85
REMARK   36  A    between atoms: _85  and  _86
REMARK   37  A    between atoms: _85  and  _88
REMARK   38  A    between atoms: _88  and  _89
REMARK   39  A    between atoms: _92  and  _94
REMARK   40  A    between atoms: _94  and  _95
REMARK   41  A    between atoms: _94  and  _97
REMARK   42  A    between atoms: _97  and  _98
REMARK   43  A    between atoms: _101  and  _103
REMARK   44  A    between atoms: _103  and  _104
REMARK   45  A    between atoms: _103  and  _106
REMARK   46  A    between atoms: _109  and  _111
REMARK   47  A    between atoms: _111  and  _112
REMARK   48  A    between atoms: _111  and  _114
REMARK   49  A    between atoms: _114  and  _115
REMARK   50  A    between atoms: _118  and  _120
REMARK   51  A    between atoms: _120  and  _121
REMARK   52  A    between atoms: _123  and  _125
REMARK   53  A    between atoms: _125  and  _126
REMARK   54  A    between atoms: _128  and  _130
REMARK   55  A    between atoms: _130  and  _131
REMARK   56  A    between atoms: _130  and  _133
REMARK   57  A    between atoms: _133  and  _134
REMARK   58  A    between atoms: _137  and  _139
REMARK   59  A    between atoms: _139  and  _140
REMARK   60  A    between atoms: _142  and  _144
REMARK   61  A    between atoms: _144  and  _145
REMARK   62  A    between atoms: _147  and  _149
REMARK   63  A    between atoms: _149  and  _150
REMARK   64  A    between atoms: _149  and  _152
REMARK   65  A    between atoms: _152  and  _153
REMARK   66  A    between atoms: _159  and  _161
REMARK   67  A    between atoms: _161  and  _162
REMARK   68  A    between atoms: _161  and  _164
REMARK   69  A    between atoms: _164  and  _165
REMARK   70  A    between atoms: _168  and  _170
REMARK   71  A    between atoms: _170  and  _171
REMARK   72  A    between atoms: _170  and  _173
REMARK   73  A    between atoms: _176  and  _178
REMARK   74  A    between atoms: _178  and  _179
REMARK   75  A    between atoms: _178  and  _181
REMARK   76  A    between atoms: _181  and  _182
REMARK   77  A    between atoms: _186  and  _187
REMARK   78  A    between atoms: _192  and  _194
REMARK   79  A    between atoms: _194  and  _195
REMARK   80  A    between atoms: _194  and  _197
REMARK   81  A    between atoms: _197  and  _198
REMARK   82  A    between atoms: _202  and  _203
REMARK   83  A    between atoms: _208  and  _210
REMARK   84  A    between atoms: _210  and  _211
REMARK   85  A    between atoms: _210  and  _213
REMARK   86  A    between atoms: _216  and  _218
REMARK   87  A    between atoms: _218  and  _219
REMARK   88  A    between atoms: _218  and  _221
REMARK   89  A    between atoms: _221  and  _222
REMARK   90  A    between atoms: _227  and  _229
REMARK   91  A    between atoms: _229  and  _230
REMARK   92  A    between atoms: _229  and  _232
REMARK   93  A    between atoms: _232  and  _233
REMARK   94  A    between atoms: _236  and  _238
REMARK   95  A    between atoms: _238  and  _239
REMARK   96  A    between atoms: _238  and  _241
REMARK   97  A    between atoms: _241  and  _242
REMARK   98  A    between atoms: _245  and  _247
REMARK   99  A    between atoms: _247  and  _248
REMARK  100  A    between atoms: _250  and  _252
REMARK  101  A    between atoms: _252  and  _253
REMARK  102  A    between atoms: _252  and  _255
REMARK  103  A    between atoms: _255  and  _256
REMARK  104  A    between atoms: _256  and  _257
REMARK  105  A    between atoms: _257  and  _258
REMARK  106  A    between atoms: _267  and  _269
REMARK  107  A    between atoms: _269  and  _270
REMARK  108  A    between atoms: _269  and  _272
REMARK  109  A    between atoms: _272  and  _273
REMARK  110  A    between atoms: _278  and  _280
REMARK  111  A    between atoms: _280  and  _281
REMARK  112  A    between atoms: _280  and  _283
REMARK  113  A    between atoms: _283  and  _284
REMARK  114  A    between atoms: _284  and  _285
REMARK  115  A    between atoms: _285  and  _286
REMARK  116  A    between atoms: _296  and  _297
REMARK  117  A    between atoms: _302  and  _304
REMARK  118  A    between atoms: _304  and  _305
REMARK  119  A    between atoms: _304  and  _307
REMARK  120  A    between atoms: _307  and  _308
REMARK  121  A    between atoms: _311  and  _313
REMARK  122  A    between atoms: _313  and  _314
REMARK  123  A    between atoms: _313  and  _316
REMARK  124  A    between atoms: _316  and  _317
REMARK  125  A    between atoms: _320  and  _322
REMARK  126  A    between atoms: _322  and  _323
REMARK  127  A    between atoms: _322  and  _325
REMARK  128  A    between atoms: _325  and  _326
REMARK  129  A    between atoms: _329  and  _331
REMARK  130  A    between atoms: _331  and  _332
REMARK  131  A    between atoms: _331  and  _334
REMARK  132  A    between atoms: _334  and  _335
REMARK  133  A    between atoms: _338  and  _340
REMARK  134  A    between atoms: _340  and  _341
REMARK  135  A    between atoms: _340  and  _343
REMARK  136  A    between atoms: _343  and  _344
REMARK  137  A    between atoms: _347  and  _349
REMARK  138  A    between atoms: _349  and  _350
REMARK  139  A    between atoms: _352  and  _354
REMARK  140  A    between atoms: _354  and  _355
REMARK  141  A    between atoms: _358  and  _360
REMARK  142  A    between atoms: _360  and  _361
REMARK  143  A    between atoms: _360  and  _363
REMARK  144  A    between atoms: _363  and  _364
REMARK  145  A    between atoms: _367  and  _369
REMARK  146  A    between atoms: _369  and  _370
REMARK  147  A    between atoms: _369  and  _372
REMARK  148  A    between atoms: _372  and  _373
REMARK  149  A    between atoms: _376  and  _378
REMARK  150  A    between atoms: _378  and  _379
REMARK  151  A    between atoms: _378  and  _381
REMARK  152  A    between atoms: _381  and  _382
REMARK  153  A    between atoms: _385  and  _387
REMARK  154  A    between atoms: _387  and  _388
REMARK  155  A    between atoms: _387  and  _390
REMARK  156  A    between atoms: _393  and  _395
REMARK  157  A    between atoms: _395  and  _396
REMARK  158  A    between atoms: _395  and  _398
REMARK  159  A    between atoms: _398  and  _399
REMARK  160  A    between atoms: _399  and  _400
REMARK  161  A    between atoms: _400  and  _401
REMARK  162  A    between atoms: _401  and  _402
REMARK  163  A    between atoms: _406  and  _408
REMARK  164  A    between atoms: _408  and  _409
REMARK  165  A    between atoms: _408  and  _411
REMARK  166  A    between atoms: _411  and  _412
REMARK  167  A    between atoms: _412  and  _413
REMARK  168  A    between atoms: _415  and  _417
REMARK  169  A    between atoms: _417  and  _418
REMARK  170  A    between atoms: _417  and  _420
REMARK  171  A    between atoms: _420  and  _421
REMARK  172  A    between atoms: _424  and  _426
REMARK  173  A    between atoms: _426  and  _427
REMARK  174  A    between atoms: _429  and  _431
REMARK  175  A    between atoms: _431  and  _432
REMARK  176  A    between atoms: _434  and  _436
REMARK  177  A    between atoms: _436  and  _437
REMARK  178  A    between atoms: _436  and  _439
REMARK  179  A    between atoms: _439  and  _440
REMARK  180  A    between atoms: _443  and  _445
REMARK  181  A    between atoms: _445  and  _446
REMARK  182  A    between atoms: _448  and  _450
REMARK  183  A    between atoms: _450  and  _451
REMARK  184  A    between atoms: _453  and  _455
REMARK  185  A    between atoms: _455  and  _456
REMARK  186  A    between atoms: _455  and  _458
REMARK  187  A    between atoms: _458  and  _459
REMARK  188  A    between atoms: _465  and  _467
REMARK  189  A    between atoms: _467  and  _468
REMARK  190  A    between atoms: _467  and  _470
REMARK  191  A    between atoms: _470  and  _471
REMARK  192  A    between atoms: _474  and  _476
REMARK  193  A    between atoms: _476  and  _477
REMARK  194  A    between atoms: _476  and  _479
REMARK  195  A    between atoms: _482  and  _484
REMARK  196  A    between atoms: _484  and  _485
REMARK  197  A    between atoms: _484  and  _487
REMARK  198  A    between atoms: _487  and  _488
REMARK  199  A    between atoms: _491  and  _493
REMARK  200  A    between atoms: _493  and  _494
REMARK  201  A    between atoms: _493  and  _496
REMARK  202  A    between atoms: _496  and  _497
REMARK  203  A    between atoms: _501  and  _502
REMARK  204  A    between atoms: _507  and  _509
REMARK  205  A    between atoms: _509  and  _510
REMARK  206  A    between atoms: _509  and  _512
REMARK  207  A    between atoms: _515  and  _517
REMARK  208  A    between atoms: _517  and  _518
REMARK  209  A    between atoms: _517  and  _520
REMARK  210  A    between atoms: _520  and  _521
REMARK  211  A    between atoms: _526  and  _528
REMARK  212  A    between atoms: _528  and  _529
REMARK  213  A    between atoms: _528  and  _531
REMARK  214  A    between atoms: _531  and  _532
REMARK  215  A    between atoms: _535  and  _537
REMARK  216  A    between atoms: _537  and  _538
REMARK  217  A    between atoms: _537  and  _540
REMARK  218  A    between atoms: _540  and  _541
REMARK  219  A    between atoms: _544  and  _546
REMARK  220  A    between atoms: _546  and  _547
REMARK  221  A    between atoms: _549  and  _551
REMARK  222  A    between atoms: _551  and  _552
REMARK  223  A    between atoms: _551  and  _554
REMARK  224  A    between atoms: _554  and  _555
REMARK  225  A    between atoms: _555  and  _556
REMARK  226  A    between atoms: _556  and  _557
REMARK  227  A    between atoms: _566  and  _568
REMARK  228  A    between atoms: _568  and  _569
REMARK  229  A    between atoms: _568  and  _571
REMARK  230  A    between atoms: _571  and  _572
REMARK                            x       y       z     vdW  Elec       q    Type
REMARK                         _______ _______ _______ _____ _____    ______ ____
ROOT
ATOM      1  C   ILE A   5      11.509  27.408  18.200  0.00  0.00    +0.241 C 
ATOM      2  N   ILE A   6      11.737  26.553  19.195  0.00  0.00    -0.297 N 
ATOM      3  H   ILE A   6      12.197  25.646  18.978  0.00  0.00    +0.150 HD
ATOM      4  O   ILE A   5      10.796  28.417  18.327  0.00  0.00    -0.273 OA
ENDROOT
BRANCH   2   5
ATOM      5  CA  ILE A   6      11.367  26.838  20.579  0.00  0.00    +0.149 C 
BRANCH   5   6
ATOM      6  C   ILE A   6      12.557  27.510  21.234  0.00  0.00    +0.241 C 
ATOM      7  N   GLY A   7      12.387  28.787  21.561  0.00  0.00    -0.295 N 
ATOM      8  H   GLY A   7      11.462  29.235  21.402  0.00  0.00    +0.150 HD
ATOM      9  O   ILE A   6      13.631  26.916  21.396  0.00  0.00    -0.273 OA
BRANCH   7  10
ATOM     10  CA  GLY A   7      13.468  29.571  22.136  0.00  0.00    +0.176 C 
BRANCH  10  11
ATOM     11  C   GLY A   7      13.398  29.633  23.644  0.00  0.00    +0.243 C 
ATOM     12  O   GLY A   7      12.499  29.058  24.273  0.00  0.00    -0.273 OA
ATOM     13  N   ARG A   8      14.352  30.360  24.217  0.00  0.00    -0.297 N 
ATOM     14  H   ARG A   8      14.981  30.931  23.617  0.00  0.00    +0.150 HD
BRANCH  13  15
ATOM     15  CA  ARG A   8      14.542  30.379  25.663  0.00  0.00    +0.149 C 
BRANCH  15  16
ATOM     16  C   ARG A   8      13.333  30.870  26.437  0.00  0.00    +0.241 C 
ATOM     17  O   ARG A   8      13.116  30.452  27.578  0.00  0.00    -0.273 OA
ATOM     18  N   ASN A   9      12.526  31.730  25.832  0.00  0.00    -0.298 N 
ATOM     19  H   ASN A   9      12.729  32.049  24.863  0.00  0.00    +0.150 HD
BRANCH  18  20
ATOM     20  CA  ASN A   9      11.350  32.224  26.539  0.00  0.00    +0.146 C 
BRANCH  20  21
ATOM     21  C   ASN A   9      10.402  31.108  26.968  0.00  0.00    +0.227 C 
ATOM     22  O   ASN A   9       9.727  31.242  27.988  0.00  0.00    -0.286 OA
ENDBRANCH  20  21
BRANCH  20  23
ATOM     23  CB  ASN A   9      10.619  33.282  25.711  0.00  0.00    +0.112 C 
BRANCH  23  24
ATOM     24  CG  ASN A   9       9.904  32.706  24.498  0.00  0.00    +0.222 C 
ATOM     25  ND2 ASN A   9       8.614  33.029  24.384  0.00  0.00    -0.329 N 
ATOM     26 HD21 ASN A   9       8.162  33.626  25.106  0.00  0.00    +0.145 HD
ATOM     27 HD22 ASN A   9       8.061  32.684  23.574  0.00  0.00    +0.145 HD
ATOM     28  OD1 ASN A   9      10.491  32.001  23.671  0.00  0.00    -0.275 OA
ENDBRANCH  23  24
ENDBRANCH  20  23
ENDBRANCH  18  20
ENDBRANCH  15  16
BRANCH  15  29
ATOM     29  CB  ARG A   8      15.792  31.180  26.047  0.00  0.00    +0.033 C 
BRANCH  29  30
ATOM     30  CG  ARG A   8      17.096  30.538  25.561  0.00  0.00    +0.045 C 
BRANCH  30  31
ATOM     31  CD  ARG A   8      18.346  31.253  26.055  0.00  0.00    +0.174 C 
BRANCH  31  32
ATOM     32  NE  ARG A   8      18.391  32.639  25.590  0.00  0.00    -0.265 N 
ATOM     33  CZ  ARG A   8      18.041  33.714  26.288  0.00  0.00    +0.342 C 
ATOM     34  NH2 ARG A   8      17.628  33.628  27.549  0.00  0.00    -0.292 N 
ATOM     35 HH21 ARG A   8      17.361  34.488  28.069  0.00  0.00    +0.255 HD
ATOM     36 HH22 ARG A   8      17.572  32.700  28.016  0.00  0.00    +0.255 HD
ATOM     37  NH1 ARG A   8      18.118  34.914  25.723  0.00  0.00    -0.292 N 
ATOM     38 HH11 ARG A   8      17.846  35.761  26.262  0.00  0.00    +0.255 HD
ATOM     39 HH12 ARG A   8      18.450  35.006  24.742  0.00  0.00    +0.255 HD
ATOM     40  HE  ARG A   8      18.730  32.798  24.620  0.00  0.00    +0.259 HD
ENDBRANCH  31  32
ENDBRANCH  30  31
ENDBRANCH  29  30
ENDBRANCH  15  29
ENDBRANCH  13  15
ENDBRANCH  10  11
ENDBRANCH   7  10
ENDBRANCH   5   6
BRANCH   5  41
ATOM     41  CB  ILE A   6      10.951  25.590  21.390  0.00  0.00    +0.027 C 
ATOM     42  CG2 ILE A   6      10.571  25.992  22.825  0.00  0.00    +0.002 C 
BRANCH  41  43
ATOM     43  CG1 ILE A   6       9.788  24.865  20.703  0.00  0.00    +0.002 C 
ATOM     44  CD1 ILE A   6       8.539  25.706  20.445  0.00  0.00    +0.000 C 
ENDBRANCH  41  43
ENDBRANCH   5  41
ENDBRANCH   2   5
BRANCH   1  45
ATOM     45  CA  ILE A   5      12.125  27.076  16.839  0.00  0.00    +0.149 C 
BRANCH  45  47
ATOM     46  C   ASN A   4      10.956  25.790  15.097  0.00  0.00    +0.241 C 
ATOM     47  N   ILE A   5      11.052  26.868  15.870  0.00  0.00    -0.297 N 
ATOM     48  H   ILE A   5      10.323  27.604  15.780  0.00  0.00    +0.150 HD
ATOM     49  O   ASN A   4      11.667  24.797  15.232  0.00  0.00    -0.273 OA
BRANCH  46  50
ATOM     50  CA  ASN A   4       9.900  25.832  13.997  0.00  0.00    +0.158 C 
BRANCH  50  52
ATOM     51  C   VAL A   3      11.381  26.121  12.091  0.00  0.00    +0.241 C 
ATOM     52  N   ASN A   4      10.533  25.357  12.770  0.00  0.00    -0.297 N 
ATOM     53  H   ASN A   4      10.316  24.402  12.421  0.00  0.00    +0.150 HD
ATOM     54  O   VAL A   3      11.574  27.313  12.359  0.00  0.00    -0.273 OA
BRANCH  51  55
ATOM     55  CA  VAL A   3      12.103  25.464  10.928  0.00  0.00    +0.149 C 
BRANCH  55  57
ATOM     56  C   PRO A   2      12.217  26.133   8.598  0.00  0.00    +0.241 C 
ATOM     57  N   VAL A   3      12.270  26.454   9.885  0.00  0.00    -0.297 N 
ATOM     58  H   VAL A   3      12.436  27.445  10.152  0.00  0.00    +0.150 HD
ATOM     59  O   PRO A   2      11.941  25.002   8.199  0.00  0.00    -0.273 OA
BRANCH  56  66
ATOM     60  C   THR A   1      11.358  29.209   8.442  0.00  0.00    +0.244 C 
ATOM     61  O   THR A   1      10.273  28.677   8.242  0.00  0.00    -0.273 OA
ATOM     62  N   PRO A   2      12.520  28.606   8.139  0.00  0.00    -0.272 N 
ATOM     63  CD  PRO A   2      13.870  29.193   8.117  0.00  0.00    +0.094 C 
ATOM     64  CG  PRO A   2      14.754  28.026   7.750  0.00  0.00    +0.024 C 
ATOM     65  CB  PRO A   2      13.913  27.083   7.016  0.00  0.00    +0.031 C 
ATOM     66  CA  PRO A   2      12.502  27.251   7.591  0.00  0.00    +0.152 C 
BRANCH  60  67
ATOM     67  CA  THR A   1      11.432  30.576   9.109  0.00  0.00    +0.172 C 
BRANCH  67  68
ATOM     68  N   THR A   1      10.317  31.398   8.673  0.00  0.00    -0.236 NA
ATOM     69  H   THR A   1       9.492  31.507   9.297  0.00  0.00    +0.142 HD
ENDBRANCH  67  68
BRANCH  67  70
ATOM     70  CB  THR A   1      11.425  30.430  10.642  0.00  0.00    +0.135 C 
ATOM     71  CG2 THR A   1      10.094  29.862  11.164  0.00  0.00    +0.034 C 
BRANCH  70  72
ATOM     72  OG1 THR A   1      12.496  29.569  11.042  0.00  0.00    -0.383 OA
ATOM     73  HG1 THR A   1      12.377  28.680  10.624  0.00  0.00    +0.210 HD
ENDBRANCH  70  72
ENDBRANCH  67  70
ENDBRANCH  60  67
ENDBRANCH  56  66
ENDBRANCH  55  57
BRANCH  55  74
ATOM     74  CB  VAL A   3      13.479  24.931  11.367  0.00  0.00    +0.027 C 
ATOM     75  CG2 VAL A   3      13.319  23.689  12.222  0.00  0.00    +0.002 C 
ATOM     76  CG1 VAL A   3      14.275  26.025  12.079  0.00  0.00    +0.002 C 
ENDBRANCH  55  74
ENDBRANCH  51  55
ENDBRANCH  50  52
BRANCH  50  77
ATOM     77  CB  ASN A   4       8.725  24.948  14.427  0.00  0.00    +0.114 C 
BRANCH  77  78
ATOM     78  CG  ASN A   4       7.591  24.918  13.430  0.00  0.00    +0.222 C 
ATOM     79  ND2 ASN A   4       7.010  26.063  13.181  0.00  0.00    -0.329 N 
ATOM     80 HD21 ASN A   4       7.375  26.936  13.612  0.00  0.00    +0.145 HD
ATOM     81 HD22 ASN A   4       6.183  26.100  12.552  0.00  0.00    +0.145 HD
ATOM     82  OD1 ASN A   4       7.202  23.853  12.947  0.00  0.00    -0.275 OA
ENDBRANCH  77  78
ENDBRANCH  50  77
ENDBRANCH  46  50
ENDBRANCH  45  47
BRANCH  45  83
ATOM     83  CB  ILE A   5      13.017  28.244  16.389  0.00  0.00    +0.027 C 
ATOM     84  CG2 ILE A   5      14.020  28.660  17.479  0.00  0.00    +0.002 C 
BRANCH  83  85
ATOM     85  CG1 ILE A   5      13.778  27.884  15.120  0.00  0.00    +0.002 C 
ATOM     86  CD1 ILE A   5      14.383  29.078  14.420  0.00  0.00    +0.000 C 
ENDBRANCH  83  85
ENDBRANCH  45  83
ENDBRANCH   1  45
TORSDOF 32
REMARK  Name = ../refined-set-2016/3o9i/3o9i_pocket.pdb
REMARK  230 active torsions:
REMARK  status: ('A' for Active; 'I' for Inactive)
REMARK    1  A    between atoms: _1  and  _3
REMARK    2  A    between atoms: _3  and  _4
REMARK    3  A    between atoms: _3  and  _6
REMARK    4  A    between atoms: _6  and  _7
REMARK    5  A    between atoms: _7  and  _8
REMARK    6  A    between atoms: _8  and  _9
REMARK    7  A    between atoms: _18  and  _20
REMARK    8  A    between atoms: _20  and  _21
REMARK    9  A    between atoms: _20  and  _23
REMARK   10  A    between atoms: _23  and  _24
REMARK   11  A    between atoms: _27  and  _29
REMARK   12  A    between atoms: _29  and  _30
REMARK   13  A    between atoms: _29  and  _32
REMARK   14  A    between atoms: _32  and  _33
REMARK   15  A    between atoms: _36  and  _38
REMARK   16  A    between atoms: _38  and  _39
REMARK   17  A    between atoms: _38  and  _41
REMARK   18  A    between atoms: _41  and  _42
REMARK   19  A    between atoms: _45  and  _47
REMARK   20  A    between atoms: _47  and  _48
REMARK   21  A    between atoms: _47  and  _50
REMARK   22  A    between atoms: _50  and  _51
REMARK   23  A    between atoms: _54  and  _56
REMARK   24  A    between atoms: _56  and  _57
REMARK   25  A    between atoms: _56  and  _59
REMARK   26  A    between atoms: _59  and  _60
REMARK   27  A    between atoms: _63  and  _65
REMARK   28  A    between atoms: _65  and  _66
REMARK   29  A    between atoms: _68  and  _70
REMARK   30  A    between atoms: _70  and  _71
REMARK   31  A    between atoms: _74  and  _76
REMARK   32  A    between atoms: _76  and  _77
REMARK   33  A    between atoms: _76  and  _79
REMARK   34  A    between atoms: _79  and  _80
REMARK   35  A    between atoms: _83  and  _85
REMARK   36  A    between atoms: _85  and  _86
REMARK   37  A    between atoms: _85  and  _88
REMARK   38  A    between atoms: _88  and  _89
REMARK   39  A    between atoms: _92  and  _94
REMARK   40  A    between atoms: _94  and  _95
REMARK   41  A    between atoms: _94  and  _97
REMARK   42  A    between atoms: _97  and  _98
REMARK   43  A    between atoms: _101  and  _103
REMARK   44  A    between atoms: _103  and  _104
REMARK   45  A    between atoms: _103  and  _106
REMARK   46  A    between atoms: _109  and  _111
REMARK   47  A    between atoms: _111  and  _112
REMARK   48  A    between atoms: _111  and  _114
REMARK   49  A    between atoms: _114  and  _115
REMARK   50  A    between atoms: _118  and  _120
REMARK   51  A    between atoms: _120  and  _121
REMARK   52  A    between atoms: _123  and  _125
REMARK   53  A    between atoms: _125  and  _126
REMARK   54  A    between atoms: _128  and  _130
REMARK   55  A    between atoms: _130  and  _131
REMARK   56  A    between atoms: _130  and  _133
REMARK   57  A    between atoms: _133  and  _134
REMARK   58  A    between atoms: _137  and  _139
REMARK   59  A    between atoms: _139  and  _140
REMARK   60  A    between atoms: _142  and  _144
REMARK   61  A    between atoms: _144  and  _145
REMARK   62  A    between atoms: _147  and  _149
REMARK   63  A    between atoms: _149  and  _150
REMARK   64  A    between atoms: _149  and  _152
REMARK   65  A    between atoms: _152  and  _153
REMARK   66  A    between atoms: _159  and  _161
REMARK   67  A    between atoms: _161  and  _162
REMARK   68  A    between atoms: _161  and  _164
REMARK   69  A    between atoms: _164  and  _165
REMARK   70  A    between atoms: _168  and  _170
REMARK   71  A    between atoms: _170  and  _171
REMARK   72  A    between atoms: _170  and  _173
REMARK   73  A    between atoms: _176  and  _178
REMARK   74  A    between atoms: _178  and  _179
REMARK   75  A    between atoms: _178  and  _181
REMARK   76  A    between atoms: _181  and  _182
REMARK   77  A    between atoms: _186  and  _187
REMARK   78  A    between atoms: _192  and  _194
REMARK   79  A    between atoms: _194  and  _195
REMARK   80  A    between atoms: _194  and  _197
REMARK   81  A    between atoms: _197  and  _198
REMARK   82  A    between atoms: _202  and  _203
REMARK   83  A    between atoms: _208  and  _210
REMARK   84  A    between atoms: _210  and  _211
REMARK   85  A    between atoms: _210  and  _213
REMARK   86  A    between atoms: _216  and  _218
REMARK   87  A    between atoms: _218  and  _219
REMARK   88  A    between atoms: _218  and  _221
REMARK   89  A    between atoms: _221  and  _222
REMARK   90  A    between atoms: _227  and  _229
REMARK   91  A    between atoms: _229  and  _230
REMARK   92  A    between atoms: _229  and  _232
REMARK   93  A    between atoms: _232  and  _233
REMARK   94  A    between atoms: _236  and  _238
REMARK   95  A    between atoms: _238  and  _239
REMARK   96  A    between atoms: _238  and  _241
REMARK   97  A    between atoms: _241  and  _242
REMARK   98  A    between atoms: _245  and  _247
REMARK   99  A    between atoms: _247  and  _248
REMARK  100  A    between atoms: _250  and  _252
REMARK  101  A    between atoms: _252  and  _253
REMARK  102  A    between atoms: _252  and  _255
REMARK  103  A    between atoms: _255  and  _256
REMARK  104  A    between atoms: _256  and  _257
REMARK  105  A    between atoms: _257  and  _258
REMARK  106  A    between atoms: _267  and  _269
REMARK  107  A    between atoms: _269  and  _270
REMARK  108  A    between atoms: _269  and  _272
REMARK  109  A    between atoms: _272  and  _273
REMARK  110  A    between atoms: _278  and  _280
REMARK  111  A    between atoms: _280  and  _281
REMARK  112  A    between atoms: _280  and  _283
REMARK  113  A    between atoms: _283  and  _284
REMARK  114  A    between atoms: _284  and  _285
REMARK  115  A    between atoms: _285  and  _286
REMARK  116  A    between atoms: _296  and  _297
REMARK  117  A    between atoms: _302  and  _304
REMARK  118  A    between atoms: _304  and  _305
REMARK  119  A    between atoms: _304  and  _307
REMARK  120  A    between atoms: _307  and  _308
REMARK  121  A    between atoms: _311  and  _313
REMARK  122  A    between atoms: _313  and  _314
REMARK  123  A    between atoms: _313  and  _316
REMARK  124  A    between atoms: _316  and  _317
REMARK  125  A    between atoms: _320  and  _322
REMARK  126  A    between atoms: _322  and  _323
REMARK  127  A    between atoms: _322  and  _325
REMARK  128  A    between atoms: _325  and  _326
REMARK  129  A    between atoms: _329  and  _331
REMARK  130  A    between atoms: _331  and  _332
REMARK  131  A    between atoms: _331  and  _334
REMARK  132  A    between atoms: _334  and  _335
REMARK  133  A    between atoms: _338  and  _340
REMARK  134  A    between atoms: _340  and  _341
REMARK  135  A    between atoms: _340  and  _343
REMARK  136  A    between atoms: _343  and  _344
REMARK  137  A    between atoms: _347  and  _349
REMARK  138  A    between atoms: _349  and  _350
REMARK  139  A    between atoms: _352  and  _354
REMARK  140  A    between atoms: _354  and  _355
REMARK  141  A    between atoms: _358  and  _360
REMARK  142  A    between atoms: _360  and  _361
REMARK  143  A    between atoms: _360  and  _363
REMARK  144  A    between atoms: _363  and  _364
REMARK  145  A    between atoms: _367  and  _369
REMARK  146  A    between atoms: _369  and  _370
REMARK  147  A    between atoms: _369  and  _372
REMARK  148  A    between atoms: _372  and  _373
REMARK  149  A    between atoms: _376  and  _378
REMARK  150  A    between atoms: _378  and  _379
REMARK  151  A    between atoms: _378  and  _381
REMARK  152  A    between atoms: _381  and  _382
REMARK  153  A    between atoms: _385  and  _387
REMARK  154  A    between atoms: _387  and  _388
REMARK  155  A    between atoms: _387  and  _390
REMARK  156  A    between atoms: _393  and  _395
REMARK  157  A    between atoms: _395  and  _396
REMARK  158  A    between atoms: _395  and  _398
REMARK  159  A    between atoms: _398  and  _399
REMARK  160  A    between atoms: _399  and  _400
REMARK  161  A    between atoms: _400  and  _401
REMARK  162  A    between atoms: _401  and  _402
REMARK  163  A    between atoms: _406  and  _408
REMARK  164  A    between atoms: _408  and  _409
REMARK  165  A    between atoms: _408  and  _411
REMARK  166  A    between atoms: _411  and  _412
REMARK  167  A    between atoms: _412  and  _413
REMARK  168  A    between atoms: _415  and  _417
REMARK  169  A    between atoms: _417  and  _418
REMARK  170  A    between atoms: _417  and  _420
REMARK  171  A    between atoms: _420  and  _421
REMARK  172  A    between atoms: _424  and  _426
REMARK  173  A    between atoms: _426  and  _427
REMARK  174  A    between atoms: _429  and  _431
REMARK  175  A    between atoms: _431  and  _432
REMARK  176  A    between atoms: _434  and  _436
REMARK  177  A    between atoms: _436  and  _437
REMARK  178  A    between atoms: _436  and  _439
REMARK  179  A    between atoms: _439  and  _440
REMARK  180  A    between atoms: _443  and  _445
REMARK  181  A    between atoms: _445  and  _446
REMARK  182  A    between atoms: _448  and  _450
REMARK  183  A    between atoms: _450  and  _451
REMARK  184  A    between atoms: _453  and  _455
REMARK  185  A    between atoms: _455  and  _456
REMARK  186  A    between atoms: _455  and  _458
REMARK  187  A    between atoms: _458  and  _459
REMARK  188  A    between atoms: _465  and  _467
REMARK  189  A    between atoms: _467  and  _468
REMARK  190  A    between atoms: _467  and  _470
REMARK  191  A    between atoms: _470  and  _471
REMARK  192  A    between atoms: _474  and  _476
REMARK  193  A    between atoms: _476  and  _477
REMARK  194  A    between atoms: _476  and  _479
REMARK  195  A    between atoms: _482  and  _484
REMARK  196  A    between atoms: _484  and  _485
REMARK  197  A    between atoms: _484  and  _487
REMARK  198  A    between atoms: _487  and  _488
REMARK  199  A    between atoms: _491  and  _493
REMARK  200  A    between atoms: _493  and  _494
REMARK  201  A    between atoms: _493  and  _496
REMARK  202  A    between atoms: _496  and  _497
REMARK  203  A    between atoms: _501  and  _502
REMARK  204  A    between atoms: _507  and  _509
REMARK  205  A    between atoms: _509  and  _510
REMARK  206  A    between atoms: _509  and  _512
REMARK  207  A    between atoms: _515  and  _517
REMARK  208  A    between atoms: _517  and  _518
REMARK  209  A    between atoms: _517  and  _520
REMARK  210  A    between atoms: _520  and  _521
REMARK  211  A    between atoms: _526  and  _528
REMARK  212  A    between atoms: _528  and  _529
REMARK  213  A    between atoms: _528  and  _531
REMARK  214  A    between atoms: _531  and  _532
REMARK  215  A    between atoms: _535  and  _537
REMARK  216  A    between atoms: _537  and  _538
REMARK  217  A    between atoms: _537  and  _540
REMARK  218  A    between atoms: _540  and  _541
REMARK  219  A    between atoms: _544  and  _546
REMARK  220  A    between atoms: _546  and  _547
REMARK  221  A    between atoms: _549  and  _551
REMARK  222  A    between atoms: _551  and  _552
REMARK  223  A    between atoms: _551  and  _554
REMARK  224  A    between atoms: _554  and  _555
REMARK  225  A    between atoms: _555  and  _556
REMARK  226  A    between atoms: _556  and  _557
REMARK  227  A    between atoms: _566  and  _568
REMARK  228  A    between atoms: _568  and  _569
REMARK  229  A    between atoms: _568  and  _571
REMARK  230  A    between atoms: _571  and  _572
REMARK                            x       y       z     vdW  Elec       q    Type
REMARK                         _______ _______ _______ _____ _____    ______ ____
ROOT
ATOM      1  O   HOH     1      20.051  21.331  15.791  0.00  0.00    +0.000 OA
ENDROOT
TORSDOF 0
REMARK  Name = ../refined-set-2016/3o9i/3o9i_pocket.pdb
REMARK  230 active torsions:
REMARK  status: ('A' for Active; 'I' for Inactive)
REMARK    1  A    between atoms: _1  and  _3
REMARK    2  A    between atoms: _3  and  _4
REMARK    3  A    between atoms: _3  and  _6
REMARK    4  A    between atoms: _6  and  _7
REMARK    5  A    between atoms: _7  and  _8
REMARK    6  A    between atoms: _8  and  _9
REMARK    7  A    between atoms: _18  and  _20
REMARK    8  A    between atoms: _20  and  _21
REMARK    9  A    between atoms: _20  and  _23
REMARK   10  A    between atoms: _23  and  _24
REMARK   11  A    between atoms: _27  and  _29
REMARK   12  A    between atoms: _29  and  _30
REMARK   13  A    between atoms: _29  and  _32
REMARK   14  A    between atoms: _32  and  _33
REMARK   15  A    between atoms: _36  and  _38
REMARK   16  A    between atoms: _38  and  _39
REMARK   17  A    between atoms: _38  and  _41
REMARK   18  A    between atoms: _41  and  _42
REMARK   19  A    between atoms: _45  and  _47
REMARK   20  A    between atoms: _47  and  _48
REMARK   21  A    between atoms: _47  and  _50
REMARK   22  A    between atoms: _50  and  _51
REMARK   23  A    between atoms: _54  and  _56
REMARK   24  A    between atoms: _56  and  _57
REMARK   25  A    between atoms: _56  and  _59
REMARK   26  A    between atoms: _59  and  _60
REMARK   27  A    between atoms: _63  and  _65
REMARK   28  A    between atoms: _65  and  _66
REMARK   29  A    between atoms: _68  and  _70
REMARK   30  A    between atoms: _70  and  _71
REMARK   31  A    between atoms: _74  and  _76
REMARK   32  A    between atoms: _76  and  _77
REMARK   33  A    between atoms: _76  and  _79
REMARK   34  A    between atoms: _79  and  _80
REMARK   35  A    between atoms: _83  and  _85
REMARK   36  A    between atoms: _85  and  _86
REMARK   37  A    between atoms: _85  and  _88
REMARK   38  A    between atoms: _88  and  _89
REMARK   39  A    between atoms: _92  and  _94
REMARK   40  A    between atoms: _94  and  _95
REMARK   41  A    between atoms: _94  and  _97
REMARK   42  A    between atoms: _97  and  _98
REMARK   43  A    between atoms: _101  and  _103
REMARK   44  A    between atoms: _103  and  _104
REMARK   45  A    between atoms: _103  and  _106
REMARK   46  A    between atoms: _109  and  _111
REMARK   47  A    between atoms: _111  and  _112
REMARK   48  A    between atoms: _111  and  _114
REMARK   49  A    between atoms: _114  and  _115
REMARK   50  A    between atoms: _118  and  _120
REMARK   51  A    between atoms: _120  and  _121
REMARK   52  A    between atoms: _123  and  _125
REMARK   53  A    between atoms: _125  and  _126
REMARK   54  A    between atoms: _128  and  _130
REMARK   55  A    between atoms: _130  and  _131
REMARK   56  A    between atoms: _130  and  _133
REMARK   57  A    between atoms: _133  and  _134
REMARK   58  A    between atoms: _137  and  _139
REMARK   59  A    between atoms: _139  and  _140
REMARK   60  A    between atoms: _142  and  _144
REMARK   61  A    between atoms: _144  and  _145
REMARK   62  A    between atoms: _147  and  _149
REMARK   63  A    between atoms: _149  and  _150
REMARK   64  A    between atoms: _149  and  _152
REMARK   65  A    between atoms: _152  and  _153
REMARK   66  A    between atoms: _159  and  _161
REMARK   67  A    between atoms: _161  and  _162
REMARK   68  A    between atoms: _161  and  _164
REMARK   69  A    between atoms: _164  and  _165
REMARK   70  A    between atoms: _168  and  _170
REMARK   71  A    between atoms: _170  and  _171
REMARK   72  A    between atoms: _170  and  _173
REMARK   73  A    between atoms: _176  and  _178
REMARK   74  A    between atoms: _178  and  _179
REMARK   75  A    between atoms: _178  and  _181
REMARK   76  A    between atoms: _181  and  _182
REMARK   77  A    between atoms: _186  and  _187
REMARK   78  A    between atoms: _192  and  _194
REMARK   79  A    between atoms: _194  and  _195
REMARK   80  A    between atoms: _194  and  _197
REMARK   81  A    between atoms: _197  and  _198
REMARK   82  A    between atoms: _202  and  _203
REMARK   83  A    between atoms: _208  and  _210
REMARK   84  A    between atoms: _210  and  _211
REMARK   85  A    between atoms: _210  and  _213
REMARK   86  A    between atoms: _216  and  _218
REMARK   87  A    between atoms: _218  and  _219
REMARK   88  A    between atoms: _218  and  _221
REMARK   89  A    between atoms: _221  and  _222
REMARK   90  A    between atoms: _227  and  _229
REMARK   91  A    between atoms: _229  and  _230
REMARK   92  A    between atoms: _229  and  _232
REMARK   93  A    between atoms: _232  and  _233
REMARK   94  A    between atoms: _236  and  _238
REMARK   95  A    between atoms: _238  and  _239
REMARK   96  A    between atoms: _238  and  _241
REMARK   97  A    between atoms: _241  and  _242
REMARK   98  A    between atoms: _245  and  _247
REMARK   99  A    between atoms: _247  and  _248
REMARK  100  A    between atoms: _250  and  _252
REMARK  101  A    between atoms: _252  and  _253
REMARK  102  A    between atoms: _252  and  _255
REMARK  103  A    between atoms: _255  and  _256
REMARK  104  A    between atoms: _256  and  _257
REMARK  105  A    between atoms: _257  and  _258
REMARK  106  A    between atoms: _267  and  _269
REMARK  107  A    between atoms: _269  and  _270
REMARK  108  A    between atoms: _269  and  _272
REMARK  109  A    between atoms: _272  and  _273
REMARK  110  A    between atoms: _278  and  _280
REMARK  111  A    between atoms: _280  and  _281
REMARK  112  A    between atoms: _280  and  _283
REMARK  113  A    between atoms: _283  and  _284
REMARK  114  A    between atoms: _284  and  _285
REMARK  115  A    between atoms: _285  and  _286
REMARK  116  A    between atoms: _296  and  _297
REMARK  117  A    between atoms: _302  and  _304
REMARK  118  A    between atoms: _304  and  _305
REMARK  119  A    between atoms: _304  and  _307
REMARK  120  A    between atoms: _307  and  _308
REMARK  121  A    between atoms: _311  and  _313
REMARK  122  A    between atoms: _313  and  _314
REMARK  123  A    between atoms: _313  and  _316
REMARK  124  A    between atoms: _316  and  _317
REMARK  125  A    between atoms: _320  and  _322
REMARK  126  A    between atoms: _322  and  _323
REMARK  127  A    between atoms: _322  and  _325
REMARK  128  A    between atoms: _325  and  _326
REMARK  129  A    between atoms: _329  and  _331
REMARK  130  A    between atoms: _331  and  _332
REMARK  131  A    between atoms: _331  and  _334
REMARK  132  A    between atoms: _334  and  _335
REMARK  133  A    between atoms: _338  and  _340
REMARK  134  A    between atoms: _340  and  _341
REMARK  135  A    between atoms: _340  and  _343
REMARK  136  A    between atoms: _343  and  _344
REMARK  137  A    between atoms: _347  and  _349
REMARK  138  A    between atoms: _349  and  _350
REMARK  139  A    between atoms: _352  and  _354
REMARK  140  A    between atoms: _354  and  _355
REMARK  141  A    between atoms: _358  and  _360
REMARK  142  A    between atoms: _360  and  _361
REMARK  143  A    between atoms: _360  and  _363
REMARK  144  A    between atoms: _363  and  _364
REMARK  145  A    between atoms: _367  and  _369
REMARK  146  A    between atoms: _369  and  _370
REMARK  147  A    between atoms: _369  and  _372
REMARK  148  A    between atoms: _372  and  _373
REMARK  149  A    between atoms: _376  and  _378
REMARK  150  A    between atoms: _378  and  _379
REMARK  151  A    between atoms: _378  and  _381
REMARK  152  A    between atoms: _381  and  _382
REMARK  153  A    between atoms: _385  and  _387
REMARK  154  A    between atoms: _387  and  _388
REMARK  155  A    between atoms: _387  and  _390
REMARK  156  A    between atoms: _393  and  _395
REMARK  157  A    between atoms: _395  and  _396
REMARK  158  A    between atoms: _395  and  _398
REMARK  159  A    between atoms: _398  and  _399
REMARK  160  A    between atoms: _399  and  _400
REMARK  161  A    between atoms: _400  and  _401
REMARK  162  A    between atoms: _401  and  _402
REMARK  163  A    between atoms: _406  and  _408
REMARK  164  A    between atoms: _408  and  _409
REMARK  165  A    between atoms: _408  and  _411
REMARK  166  A    between atoms: _411  and  _412
REMARK  167  A    between atoms: _412  and  _413
REMARK  168  A    between atoms: _415  and  _417
REMARK  169  A    between atoms: _417  and  _418
REMARK  170  A    between atoms: _417  and  _420
REMARK  171  A    between atoms: _420  and  _421
REMARK  172  A    between atoms: _424  and  _426
REMARK  173  A    between atoms: _426  and  _427
REMARK  174  A    between atoms: _429  and  _431
REMARK  175  A    between atoms: _431  and  _432
REMARK  176  A    between atoms: _434  and  _436
REMARK  177  A    between atoms: _436  and  _437
REMARK  178  A    between atoms: _436  and  _439
REMARK  179  A    between atoms: _439  and  _440
REMARK  180  A    between atoms: _443  and  _445
REMARK  181  A    between atoms: _445  and  _446
REMARK  182  A    between atoms: _448  and  _450
REMARK  183  A    between atoms: _450  and  _451
REMARK  184  A    between atoms: _453  and  _455
REMARK  185  A    between atoms: _455  and  _456
REMARK  186  A    between atoms: _455  and  _458
REMARK  187  A    between atoms: _458  and  _459
REMARK  188  A    between atoms: _465  and  _467
REMARK  189  A    between atoms: _467  and  _468
REMARK  190  A    between atoms: _467  and  _470
REMARK  191  A    between atoms: _470  and  _471
REMARK  192  A    between atoms: _474  and  _476
REMARK  193  A    between atoms: _476  and  _477
REMARK  194  A    between atoms: _476  and  _479
REMARK  195  A    between atoms: _482  and  _484
REMARK  196  A    between atoms: _484  and  _485
REMARK  197  A    between atoms: _484  and  _487
REMARK  198  A    between atoms: _487  and  _488
REMARK  199  A    between atoms: _491  and  _493
REMARK  200  A    between atoms: _493  and  _494
REMARK  201  A    between atoms: _493  and  _496
REMARK  202  A    between atoms: _496  and  _497
REMARK  203  A    between atoms: _501  and  _502
REMARK  204  A    between atoms: _507  and  _509
REMARK  205  A    between atoms: _509  and  _510
REMARK  206  A    between atoms: _509  and  _512
REMARK  207  A    between atoms: _515  and  _517
REMARK  208  A    between atoms: _517  and  _518
REMARK  209  A    between atoms: _517  and  _520
REMARK  210  A    between atoms: _520  and  _521
REMARK  211  A    between atoms: _526  and  _528
REMARK  212  A    between atoms: _528  and  _529
REMARK  213  A    between atoms: _528  and  _531
REMARK  214  A    between atoms: _531  and  _532
REMARK  215  A    between atoms: _535  and  _537
REMARK  216  A    between atoms: _537  and  _538
REMARK  217  A    between atoms: _537  and  _540
REMARK  218  A    between atoms: _540  and  _541
REMARK  219  A    between atoms: _544  and  _546
REMARK  220  A    between atoms: _546  and  _547
REMARK  221  A    between atoms: _549  and  _551
REMARK  222  A    between atoms: _551  and  _552
REMARK  223  A    between atoms: _551  and  _554
REMARK  224  A    between atoms: _554  and  _555
REMARK  225  A    between atoms: _555  and  _556
REMARK  226  A    between atoms: _556  and  _557
REMARK  227  A    between atoms: _566  and  _568
REMARK  228  A    between atoms: _568  and  _569
REMARK  229  A    between atoms: _568  and  _571
REMARK  230  A    between atoms: _571  and  _572
REMARK                            x       y       z     vdW  Elec       q    Type
REMARK                         _______ _______ _______ _____ _____    ______ ____
ROOT
ATOM      1  O   HOH     1      19.503  22.660  13.398  0.00  0.00    +0.000 OA
ENDROOT
TORSDOF 0
REMARK  Name = ../refined-set-2016/3o9i/3o9i_pocket.pdb
REMARK  230 active torsions:
REMARK  status: ('A' for Active; 'I' for Inactive)
REMARK    1  A    between atoms: _1  and  _3
REMARK    2  A    between atoms: _3  and  _4
REMARK    3  A    between atoms: _3  and  _6
REMARK    4  A    between atoms: _6  and  _7
REMARK    5  A    between atoms: _7  and  _8
REMARK    6  A    between atoms: _8  and  _9
REMARK    7  A    between atoms: _18  and  _20
REMARK    8  A    between atoms: _20  and  _21
REMARK    9  A    between atoms: _20  and  _23
REMARK   10  A    between atoms: _23  and  _24
REMARK   11  A    between atoms: _27  and  _29
REMARK   12  A    between atoms: _29  and  _30
REMARK   13  A    between atoms: _29  and  _32
REMARK   14  A    between atoms: _32  and  _33
REMARK   15  A    between atoms: _36  and  _38
REMARK   16  A    between atoms: _38  and  _39
REMARK   17  A    between atoms: _38  and  _41
REMARK   18  A    between atoms: _41  and  _42
REMARK   19  A    between atoms: _45  and  _47
REMARK   20  A    between atoms: _47  and  _48
REMARK   21  A    between atoms: _47  and  _50
REMARK   22  A    between atoms: _50  and  _51
REMARK   23  A    between atoms: _54  and  _56
REMARK   24  A    between atoms: _56  and  _57
REMARK   25  A    between atoms: _56  and  _59
REMARK   26  A    between atoms: _59  and  _60
REMARK   27  A    between atoms: _63  and  _65
REMARK   28  A    between atoms: _65  and  _66
REMARK   29  A    between atoms: _68  and  _70
REMARK   30  A    between atoms: _70  and  _71
REMARK   31  A    between atoms: _74  and  _76
REMARK   32  A    between atoms: _76  and  _77
REMARK   33  A    between atoms: _76  and  _79
REMARK   34  A    between atoms: _79  and  _80
REMARK   35  A    between atoms: _83  and  _85
REMARK   36  A    between atoms: _85  and  _86
REMARK   37  A    between atoms: _85  and  _88
REMARK   38  A    between atoms: _88  and  _89
REMARK   39  A    between atoms: _92  and  _94
REMARK   40  A    between atoms: _94  and  _95
REMARK   41  A    between atoms: _94  and  _97
REMARK   42  A    between atoms: _97  and  _98
REMARK   43  A    between atoms: _101  and  _103
REMARK   44  A    between atoms: _103  and  _104
REMARK   45  A    between atoms: _103  and  _106
REMARK   46  A    between atoms: _109  and  _111
REMARK   47  A    between atoms: _111  and  _112
REMARK   48  A    between atoms: _111  and  _114
REMARK   49  A    between atoms: _114  and  _115
REMARK   50  A    between atoms: _118  and  _120
REMARK   51  A    between atoms: _120  and  _121
REMARK   52  A    between atoms: _123  and  _125
REMARK   53  A    between atoms: _125  and  _126
REMARK   54  A    between atoms: _128  and  _130
REMARK   55  A    between atoms: _130  and  _131
REMARK   56  A    between atoms: _130  and  _133
REMARK   57  A    between atoms: _133  and  _134
REMARK   58  A    between atoms: _137  and  _139
REMARK   59  A    between atoms: _139  and  _140
REMARK   60  A    between atoms: _142  and  _144
REMARK   61  A    between atoms: _144  and  _145
REMARK   62  A    between atoms: _147  and  _149
REMARK   63  A    between atoms: _149  and  _150
REMARK   64  A    between atoms: _149  and  _152
REMARK   65  A    between atoms: _152  and  _153
REMARK   66  A    between atoms: _159  and  _161
REMARK   67  A    between atoms: _161  and  _162
REMARK   68  A    between atoms: _161  and  _164
REMARK   69  A    between atoms: _164  and  _165
REMARK   70  A    between atoms: _168  and  _170
REMARK   71  A    between atoms: _170  and  _171
REMARK   72  A    between atoms: _170  and  _173
REMARK   73  A    between atoms: _176  and  _178
REMARK   74  A    between atoms: _178  and  _179
REMARK   75  A    between atoms: _178  and  _181
REMARK   76  A    between atoms: _181  and  _182
REMARK   77  A    between atoms: _186  and  _187
REMARK   78  A    between atoms: _192  and  _194
REMARK   79  A    between atoms: _194  and  _195
REMARK   80  A    between atoms: _194  and  _197
REMARK   81  A    between atoms: _197  and  _198
REMARK   82  A    between atoms: _202  and  _203
REMARK   83  A    between atoms: _208  and  _210
REMARK   84  A    between atoms: _210  and  _211
REMARK   85  A    between atoms: _210  and  _213
REMARK   86  A    between atoms: _216  and  _218
REMARK   87  A    between atoms: _218  and  _219
REMARK   88  A    between atoms: _218  and  _221
REMARK   89  A    between atoms: _221  and  _222
REMARK   90  A    between atoms: _227  and  _229
REMARK   91  A    between atoms: _229  and  _230
REMARK   92  A    between atoms: _229  and  _232
REMARK   93  A    between atoms: _232  and  _233
REMARK   94  A    between atoms: _236  and  _238
REMARK   95  A    between atoms: _238  and  _239
REMARK   96  A    between atoms: _238  and  _241
REMARK   97  A    between atoms: _241  and  _242
REMARK   98  A    between atoms: _245  and  _247
REMARK   99  A    between atoms: _247  and  _248
REMARK  100  A    between atoms: _250  and  _252
REMARK  101  A    between atoms: _252  and  _253
REMARK  102  A    between atoms: _252  and  _255
REMARK  103  A    between atoms: _255  and  _256
REMARK  104  A    between atoms: _256  and  _257
REMARK  105  A    between atoms: _257  and  _258
REMARK  106  A    between atoms: _267  and  _269
REMARK  107  A    between atoms: _269  and  _270
REMARK  108  A    between atoms: _269  and  _272
REMARK  109  A    between atoms: _272  and  _273
REMARK  110  A    between atoms: _278  and  _280
REMARK  111  A    between atoms: _280  and  _281
REMARK  112  A    between atoms: _280  and  _283
REMARK  113  A    between atoms: _283  and  _284
REMARK  114  A    between atoms: _284  and  _285
REMARK  115  A    between atoms: _285  and  _286
REMARK  116  A    between atoms: _296  and  _297
REMARK  117  A    between atoms: _302  and  _304
REMARK  118  A    between atoms: _304  and  _305
REMARK  119  A    between atoms: _304  and  _307
REMARK  120  A    between atoms: _307  and  _308
REMARK  121  A    between atoms: _311  and  _313
REMARK  122  A    between atoms: _313  and  _314
REMARK  123  A    between atoms: _313  and  _316
REMARK  124  A    between atoms: _316  and  _317
REMARK  125  A    between atoms: _320  and  _322
REMARK  126  A    between atoms: _322  and  _323
REMARK  127  A    between atoms: _322  and  _325
REMARK  128  A    between atoms: _325  and  _326
REMARK  129  A    between atoms: _329  and  _331
REMARK  130  A    between atoms: _331  and  _332
REMARK  131  A    between atoms: _331  and  _334
REMARK  132  A    between atoms: _334  and  _335
REMARK  133  A    between atoms: _338  and  _340
REMARK  134  A    between atoms: _340  and  _341
REMARK  135  A    between atoms: _340  and  _343
REMARK  136  A    between atoms: _343  and  _344
REMARK  137  A    between atoms: _347  and  _349
REMARK  138  A    between atoms: _349  and  _350
REMARK  139  A    between atoms: _352  and  _354
REMARK  140  A    between atoms: _354  and  _355
REMARK  141  A    between atoms: _358  and  _360
REMARK  142  A    between atoms: _360  and  _361
REMARK  143  A    between atoms: _360  and  _363
REMARK  144  A    between atoms: _363  and  _364
REMARK  145  A    between atoms: _367  and  _369
REMARK  146  A    between atoms: _369  and  _370
REMARK  147  A    between atoms: _369  and  _372
REMARK  148  A    between atoms: _372  and  _373
REMARK  149  A    between atoms: _376  and  _378
REMARK  150  A    between atoms: _378  and  _379
REMARK  151  A    between atoms: _378  and  _381
REMARK  152  A    between atoms: _381  and  _382
REMARK  153  A    between atoms: _385  and  _387
REMARK  154  A    between atoms: _387  and  _388
REMARK  155  A    between atoms: _387  and  _390
REMARK  156  A    between atoms: _393  and  _395
REMARK  157  A    between atoms: _395  and  _396
REMARK  158  A    between atoms: _395  and  _398
REMARK  159  A    between atoms: _398  and  _399
REMARK  160  A    between atoms: _399  and  _400
REMARK  161  A    between atoms: _400  and  _401
REMARK  162  A    between atoms: _401  and  _402
REMARK  163  A    between atoms: _406  and  _408
REMARK  164  A    between atoms: _408  and  _409
REMARK  165  A    between atoms: _408  and  _411
REMARK  166  A    between atoms: _411  and  _412
REMARK  167  A    between atoms: _412  and  _413
REMARK  168  A    between atoms: _415  and  _417
REMARK  169  A    between atoms: _417  and  _418
REMARK  170  A    between atoms: _417  and  _420
REMARK  171  A    between atoms: _420  and  _421
REMARK  172  A    between atoms: _424  and  _426
REMARK  173  A    between atoms: _426  and  _427
REMARK  174  A    between atoms: _429  and  _431
REMARK  175  A    between atoms: _431  and  _432
REMARK  176  A    between atoms: _434  and  _436
REMARK  177  A    between atoms: _436  and  _437
REMARK  178  A    between atoms: _436  and  _439
REMARK  179  A    between atoms: _439  and  _440
REMARK  180  A    between atoms: _443  and  _445
REMARK  181  A    between atoms: _445  and  _446
REMARK  182  A    between atoms: _448  and  _450
REMARK  183  A    between atoms: _450  and  _451
REMARK  184  A    between atoms: _453  and  _455
REMARK  185  A    between atoms: _455  and  _456
REMARK  186  A    between atoms: _455  and  _458
REMARK  187  A    between atoms: _458  and  _459
REMARK  188  A    between atoms: _465  and  _467
REMARK  189  A    between atoms: _467  and  _468
REMARK  190  A    between atoms: _467  and  _470
REMARK  191  A    between atoms: _470  and  _471
REMARK  192  A    between atoms: _474  and  _476
REMARK  193  A    between atoms: _476  and  _477
REMARK  194  A    between atoms: _476  and  _479
REMARK  195  A    between atoms: _482  and  _484
REMARK  196  A    between atoms: _484  and  _485
REMARK  197  A    between atoms: _484  and  _487
REMARK  198  A    between atoms: _487  and  _488
REMARK  199  A    between atoms: _491  and  _493
REMARK  200  A    between atoms: _493  and  _494
REMARK  201  A    between atoms: _493  and  _496
REMARK  202  A    between atoms: _496  and  _497
REMARK  203  A    between atoms: _501  and  _502
REMARK  204  A    between atoms: _507  and  _509
REMARK  205  A    between atoms: _509  and  _510
REMARK  206  A    between atoms: _509  and  _512
REMARK  207  A    between atoms: _515  and  _517
REMARK  208  A    between atoms: _517  and  _518
REMARK  209  A    between atoms: _517  and  _520
REMARK  210  A    between atoms: _520  and  _521
REMARK  211  A    between atoms: _526  and  _528
REMARK  212  A    between atoms: _528  and  _529
REMARK  213  A    between atoms: _528  and  _531
REMARK  214  A    between atoms: _531  and  _532
REMARK  215  A    between atoms: _535  and  _537
REMARK  216  A    between atoms: _537  and  _538
REMARK  217  A    between atoms: _537  and  _540
REMARK  218  A    between atoms: _540  and  _541
REMARK  219  A    between atoms: _544  and  _546
REMARK  220  A    between atoms: _546  and  _547
REMARK  221  A    between atoms: _549  and  _551
REMARK  222  A    between atoms: _551  and  _552
REMARK  223  A    between atoms: _551  and  _554
REMARK  224  A    between atoms: _554  and  _555
REMARK  225  A    between atoms: _555  and  _556
REMARK  226  A    between atoms: _556  and  _557
REMARK  227  A    between atoms: _566  and  _568
REMARK  228  A    between atoms: _568  and  _569
REMARK  229  A    between atoms: _568  and  _571
REMARK  230  A    between atoms: _571  and  _572
REMARK                            x       y       z     vdW  Elec       q    Type
REMARK                         _______ _______ _______ _____ _____    ______ ____
ROOT
ATOM      1  O   HOH     1      31.150  23.266  12.296  0.00  0.00    +0.000 OA
ENDROOT
TORSDOF 0
REMARK  Name = ../refined-set-2016/3o9i/3o9i_pocket.pdb
REMARK  230 active torsions:
REMARK  status: ('A' for Active; 'I' for Inactive)
REMARK    1  A    between atoms: _1  and  _3
REMARK    2  A    between atoms: _3  and  _4
REMARK    3  A    between atoms: _3  and  _6
REMARK    4  A    between atoms: _6  and  _7
REMARK    5  A    between atoms: _7  and  _8
REMARK    6  A    between atoms: _8  and  _9
REMARK    7  A    between atoms: _18  and  _20
REMARK    8  A    between atoms: _20  and  _21
REMARK    9  A    between atoms: _20  and  _23
REMARK   10  A    between atoms: _23  and  _24
REMARK   11  A    between atoms: _27  and  _29
REMARK   12  A    between atoms: _29  and  _30
REMARK   13  A    between atoms: _29  and  _32
REMARK   14  A    between atoms: _32  and  _33
REMARK   15  A    between atoms: _36  and  _38
REMARK   16  A    between atoms: _38  and  _39
REMARK   17  A    between atoms: _38  and  _41
REMARK   18  A    between atoms: _41  and  _42
REMARK   19  A    between atoms: _45  and  _47
REMARK   20  A    between atoms: _47  and  _48
REMARK   21  A    between atoms: _47  and  _50
REMARK   22  A    between atoms: _50  and  _51
REMARK   23  A    between atoms: _54  and  _56
REMARK   24  A    between atoms: _56  and  _57
REMARK   25  A    between atoms: _56  and  _59
REMARK   26  A    between atoms: _59  and  _60
REMARK   27  A    between atoms: _63  and  _65
REMARK   28  A    between atoms: _65  and  _66
REMARK   29  A    between atoms: _68  and  _70
REMARK   30  A    between atoms: _70  and  _71
REMARK   31  A    between atoms: _74  and  _76
REMARK   32  A    between atoms: _76  and  _77
REMARK   33  A    between atoms: _76  and  _79
REMARK   34  A    between atoms: _79  and  _80
REMARK   35  A    between atoms: _83  and  _85
REMARK   36  A    between atoms: _85  and  _86
REMARK   37  A    between atoms: _85  and  _88
REMARK   38  A    between atoms: _88  and  _89
REMARK   39  A    between atoms: _92  and  _94
REMARK   40  A    between atoms: _94  and  _95
REMARK   41  A    between atoms: _94  and  _97
REMARK   42  A    between atoms: _97  and  _98
REMARK   43  A    between atoms: _101  and  _103
REMARK   44  A    between atoms: _103  and  _104
REMARK   45  A    between atoms: _103  and  _106
REMARK   46  A    between atoms: _109  and  _111
REMARK   47  A    between atoms: _111  and  _112
REMARK   48  A    between atoms: _111  and  _114
REMARK   49  A    between atoms: _114  and  _115
REMARK   50  A    between atoms: _118  and  _120
REMARK   51  A    between atoms: _120  and  _121
REMARK   52  A    between atoms: _123  and  _125
REMARK   53  A    between atoms: _125  and  _126
REMARK   54  A    between atoms: _128  and  _130
REMARK   55  A    between atoms: _130  and  _131
REMARK   56  A    between atoms: _130  and  _133
REMARK   57  A    between atoms: _133  and  _134
REMARK   58  A    between atoms: _137  and  _139
REMARK   59  A    between atoms: _139  and  _140
REMARK   60  A    between atoms: _142  and  _144
REMARK   61  A    between atoms: _144  and  _145
REMARK   62  A    between atoms: _147  and  _149
REMARK   63  A    between atoms: _149  and  _150
REMARK   64  A    between atoms: _149  and  _152
REMARK   65  A    between atoms: _152  and  _153
REMARK   66  A    between atoms: _159  and  _161
REMARK   67  A    between atoms: _161  and  _162
REMARK   68  A    between atoms: _161  and  _164
REMARK   69  A    between atoms: _164  and  _165
REMARK   70  A    between atoms: _168  and  _170
REMARK   71  A    between atoms: _170  and  _171
REMARK   72  A    between atoms: _170  and  _173
REMARK   73  A    between atoms: _176  and  _178
REMARK   74  A    between atoms: _178  and  _179
REMARK   75  A    between atoms: _178  and  _181
REMARK   76  A    between atoms: _181  and  _182
REMARK   77  A    between atoms: _186  and  _187
REMARK   78  A    between atoms: _192  and  _194
REMARK   79  A    between atoms: _194  and  _195
REMARK   80  A    between atoms: _194  and  _197
REMARK   81  A    between atoms: _197  and  _198
REMARK   82  A    between atoms: _202  and  _203
REMARK   83  A    between atoms: _208  and  _210
REMARK   84  A    between atoms: _210  and  _211
REMARK   85  A    between atoms: _210  and  _213
REMARK   86  A    between atoms: _216  and  _218
REMARK   87  A    between atoms: _218  and  _219
REMARK   88  A    between atoms: _218  and  _221
REMARK   89  A    between atoms: _221  and  _222
REMARK   90  A    between atoms: _227  and  _229
REMARK   91  A    between atoms: _229  and  _230
REMARK   92  A    between atoms: _229  and  _232
REMARK   93  A    between atoms: _232  and  _233
REMARK   94  A    between atoms: _236  and  _238
REMARK   95  A    between atoms: _238  and  _239
REMARK   96  A    between atoms: _238  and  _241
REMARK   97  A    between atoms: _241  and  _242
REMARK   98  A    between atoms: _245  and  _247
REMARK   99  A    between atoms: _247  and  _248
REMARK  100  A    between atoms: _250  and  _252
REMARK  101  A    between atoms: _252  and  _253
REMARK  102  A    between atoms: _252  and  _255
REMARK  103  A    between atoms: _255  and  _256
REMARK  104  A    between atoms: _256  and  _257
REMARK  105  A    between atoms: _257  and  _258
REMARK  106  A    between atoms: _267  and  _269
REMARK  107  A    between atoms: _269  and  _270
REMARK  108  A    between atoms: _269  and  _272
REMARK  109  A    between atoms: _272  and  _273
REMARK  110  A    between atoms: _278  and  _280
REMARK  111  A    between atoms: _280  and  _281
REMARK  112  A    between atoms: _280  and  _283
REMARK  113  A    between atoms: _283  and  _284
REMARK  114  A    between atoms: _284  and  _285
REMARK  115  A    between atoms: _285  and  _286
REMARK  116  A    between atoms: _296  and  _297
REMARK  117  A    between atoms: _302  and  _304
REMARK  118  A    between atoms: _304  and  _305
REMARK  119  A    between atoms: _304  and  _307
REMARK  120  A    between atoms: _307  and  _308
REMARK  121  A    between atoms: _311  and  _313
REMARK  122  A    between atoms: _313  and  _314
REMARK  123  A    between atoms: _313  and  _316
REMARK  124  A    between atoms: _316  and  _317
REMARK  125  A    between atoms: _320  and  _322
REMARK  126  A    between atoms: _322  and  _323
REMARK  127  A    between atoms: _322  and  _325
REMARK  128  A    between atoms: _325  and  _326
REMARK  129  A    between atoms: _329  and  _331
REMARK  130  A    between atoms: _331  and  _332
REMARK  131  A    between atoms: _331  and  _334
REMARK  132  A    between atoms: _334  and  _335
REMARK  133  A    between atoms: _338  and  _340
REMARK  134  A    between atoms: _340  and  _341
REMARK  135  A    between atoms: _340  and  _343
REMARK  136  A    between atoms: _343  and  _344
REMARK  137  A    between atoms: _347  and  _349
REMARK  138  A    between atoms: _349  and  _350
REMARK  139  A    between atoms: _352  and  _354
REMARK  140  A    between atoms: _354  and  _355
REMARK  141  A    between atoms: _358  and  _360
REMARK  142  A    between atoms: _360  and  _361
REMARK  143  A    between atoms: _360  and  _363
REMARK  144  A    between atoms: _363  and  _364
REMARK  145  A    between atoms: _367  and  _369
REMARK  146  A    between atoms: _369  and  _370
REMARK  147  A    between atoms: _369  and  _372
REMARK  148  A    between atoms: _372  and  _373
REMARK  149  A    between atoms: _376  and  _378
REMARK  150  A    between atoms: _378  and  _379
REMARK  151  A    between atoms: _378  and  _381
REMARK  152  A    between atoms: _381  and  _382
REMARK  153  A    between atoms: _385  and  _387
REMARK  154  A    between atoms: _387  and  _388
REMARK  155  A    between atoms: _387  and  _390
REMARK  156  A    between atoms: _393  and  _395
REMARK  157  A    between atoms: _395  and  _396
REMARK  158  A    between atoms: _395  and  _398
REMARK  159  A    between atoms: _398  and  _399
REMARK  160  A    between atoms: _399  and  _400
REMARK  161  A    between atoms: _400  and  _401
REMARK  162  A    between atoms: _401  and  _402
REMARK  163  A    between atoms: _406  and  _408
REMARK  164  A    between atoms: _408  and  _409
REMARK  165  A    between atoms: _408  and  _411
REMARK  166  A    between atoms: _411  and  _412
REMARK  167  A    between atoms: _412  and  _413
REMARK  168  A    between atoms: _415  and  _417
REMARK  169  A    between atoms: _417  and  _418
REMARK  170  A    between atoms: _417  and  _420
REMARK  171  A    between atoms: _420  and  _421
REMARK  172  A    between atoms: _424  and  _426
REMARK  173  A    between atoms: _426  and  _427
REMARK  174  A    between atoms: _429  and  _431
REMARK  175  A    between atoms: _431  and  _432
REMARK  176  A    between atoms: _434  and  _436
REMARK  177  A    between atoms: _436  and  _437
REMARK  178  A    between atoms: _436  and  _439
REMARK  179  A    between atoms: _439  and  _440
REMARK  180  A    between atoms: _443  and  _445
REMARK  181  A    between atoms: _445  and  _446
REMARK  182  A    between atoms: _448  and  _450
REMARK  183  A    between atoms: _450  and  _451
REMARK  184  A    between atoms: _453  and  _455
REMARK  185  A    between atoms: _455  and  _456
REMARK  186  A    between atoms: _455  and  _458
REMARK  187  A    between atoms: _458  and  _459
REMARK  188  A    between atoms: _465  and  _467
REMARK  189  A    between atoms: _467  and  _468
REMARK  190  A    between atoms: _467  and  _470
REMARK  191  A    between atoms: _470  and  _471
REMARK  192  A    between atoms: _474  and  _476
REMARK  193  A    between atoms: _476  and  _477
REMARK  194  A    between atoms: _476  and  _479
REMARK  195  A    between atoms: _482  and  _484
REMARK  196  A    between atoms: _484  and  _485
REMARK  197  A    between atoms: _484  and  _487
REMARK  198  A    between atoms: _487  and  _488
REMARK  199  A    between atoms: _491  and  _493
REMARK  200  A    between atoms: _493  and  _494
REMARK  201  A    between atoms: _493  and  _496
REMARK  202  A    between atoms: _496  and  _497
REMARK  203  A    between atoms: _501  and  _502
REMARK  204  A    between atoms: _507  and  _509
REMARK  205  A    between atoms: _509  and  _510
REMARK  206  A    between atoms: _509  and  _512
REMARK  207  A    between atoms: _515  and  _517
REMARK  208  A    between atoms: _517  and  _518
REMARK  209  A    between atoms: _517  and  _520
REMARK  210  A    between atoms: _520  and  _521
REMARK  211  A    between atoms: _526  and  _528
REMARK  212  A    between atoms: _528  and  _529
REMARK  213  A    between atoms: _528  and  _531
REMARK  214  A    between atoms: _531  and  _532
REMARK  215  A    between atoms: _535  and  _537
REMARK  216  A    between atoms: _537  and  _538
REMARK  217  A    between atoms: _537  and  _540
REMARK  218  A    between atoms: _540  and  _541
REMARK  219  A    between atoms: _544  and  _546
REMARK  220  A    between atoms: _546  and  _547
REMARK  221  A    between atoms: _549  and  _551
REMARK  222  A    between atoms: _551  and  _552
REMARK  223  A    between atoms: _551  and  _554
REMARK  224  A    between atoms: _554  and  _555
REMARK  225  A    between atoms: _555  and  _556
REMARK  226  A    between atoms: _556  and  _557
REMARK  227  A    between atoms: _566  and  _568
REMARK  228  A    between atoms: _568  and  _569
REMARK  229  A    between atoms: _568  and  _571
REMARK  230  A    between atoms: _571  and  _572
REMARK                            x       y       z     vdW  Elec       q    Type
REMARK                         _______ _______ _______ _____ _____    ______ ____
ROOT
ATOM      1  O   HOH     1      26.074  18.317  13.702  0.00  0.00    +0.000 OA
ENDROOT
TORSDOF 0
REMARK  Name = ../refined-set-2016/3o9i/3o9i_pocket.pdb
REMARK  230 active torsions:
REMARK  status: ('A' for Active; 'I' for Inactive)
REMARK    1  A    between atoms: _1  and  _3
REMARK    2  A    between atoms: _3  and  _4
REMARK    3  A    between atoms: _3  and  _6
REMARK    4  A    between atoms: _6  and  _7
REMARK    5  A    between atoms: _7  and  _8
REMARK    6  A    between atoms: _8  and  _9
REMARK    7  A    between atoms: _18  and  _20
REMARK    8  A    between atoms: _20  and  _21
REMARK    9  A    between atoms: _20  and  _23
REMARK   10  A    between atoms: _23  and  _24
REMARK   11  A    between atoms: _27  and  _29
REMARK   12  A    between atoms: _29  and  _30
REMARK   13  A    between atoms: _29  and  _32
REMARK   14  A    between atoms: _32  and  _33
REMARK   15  A    between atoms: _36  and  _38
REMARK   16  A    between atoms: _38  and  _39
REMARK   17  A    between atoms: _38  and  _41
REMARK   18  A    between atoms: _41  and  _42
REMARK   19  A    between atoms: _45  and  _47
REMARK   20  A    between atoms: _47  and  _48
REMARK   21  A    between atoms: _47  and  _50
REMARK   22  A    between atoms: _50  and  _51
REMARK   23  A    between atoms: _54  and  _56
REMARK   24  A    between atoms: _56  and  _57
REMARK   25  A    between atoms: _56  and  _59
REMARK   26  A    between atoms: _59  and  _60
REMARK   27  A    between atoms: _63  and  _65
REMARK   28  A    between atoms: _65  and  _66
REMARK   29  A    between atoms: _68  and  _70
REMARK   30  A    between atoms: _70  and  _71
REMARK   31  A    between atoms: _74  and  _76
REMARK   32  A    between atoms: _76  and  _77
REMARK   33  A    between atoms: _76  and  _79
REMARK   34  A    between atoms: _79  and  _80
REMARK   35  A    between atoms: _83  and  _85
REMARK   36  A    between atoms: _85  and  _86
REMARK   37  A    between atoms: _85  and  _88
REMARK   38  A    between atoms: _88  and  _89
REMARK   39  A    between atoms: _92  and  _94
REMARK   40  A    between atoms: _94  and  _95
REMARK   41  A    between atoms: _94  and  _97
REMARK   42  A    between atoms: _97  and  _98
REMARK   43  A    between atoms: _101  and  _103
REMARK   44  A    between atoms: _103  and  _104
REMARK   45  A    between atoms: _103  and  _106
REMARK   46  A    between atoms: _109  and  _111
REMARK   47  A    between atoms: _111  and  _112
REMARK   48  A    between atoms: _111  and  _114
REMARK   49  A    between atoms: _114  and  _115
REMARK   50  A    between atoms: _118  and  _120
REMARK   51  A    between atoms: _120  and  _121
REMARK   52  A    between atoms: _123  and  _125
REMARK   53  A    between atoms: _125  and  _126
REMARK   54  A    between atoms: _128  and  _130
REMARK   55  A    between atoms: _130  and  _131
REMARK   56  A    between atoms: _130  and  _133
REMARK   57  A    between atoms: _133  and  _134
REMARK   58  A    between atoms: _137  and  _139
REMARK   59  A    between atoms: _139  and  _140
REMARK   60  A    between atoms: _142  and  _144
REMARK   61  A    between atoms: _144  and  _145
REMARK   62  A    between atoms: _147  and  _149
REMARK   63  A    between atoms: _149  and  _150
REMARK   64  A    between atoms: _149  and  _152
REMARK   65  A    between atoms: _152  and  _153
REMARK   66  A    between atoms: _159  and  _161
REMARK   67  A    between atoms: _161  and  _162
REMARK   68  A    between atoms: _161  and  _164
REMARK   69  A    between atoms: _164  and  _165
REMARK   70  A    between atoms: _168  and  _170
REMARK   71  A    between atoms: _170  and  _171
REMARK   72  A    between atoms: _170  and  _173
REMARK   73  A    between atoms: _176  and  _178
REMARK   74  A    between atoms: _178  and  _179
REMARK   75  A    between atoms: _178  and  _181
REMARK   76  A    between atoms: _181  and  _182
REMARK   77  A    between atoms: _186  and  _187
REMARK   78  A    between atoms: _192  and  _194
REMARK   79  A    between atoms: _194  and  _195
REMARK   80  A    between atoms: _194  and  _197
REMARK   81  A    between atoms: _197  and  _198
REMARK   82  A    between atoms: _202  and  _203
REMARK   83  A    between atoms: _208  and  _210
REMARK   84  A    between atoms: _210  and  _211
REMARK   85  A    between atoms: _210  and  _213
REMARK   86  A    between atoms: _216  and  _218
REMARK   87  A    between atoms: _218  and  _219
REMARK   88  A    between atoms: _218  and  _221
REMARK   89  A    between atoms: _221  and  _222
REMARK   90  A    between atoms: _227  and  _229
REMARK   91  A    between atoms: _229  and  _230
REMARK   92  A    between atoms: _229  and  _232
REMARK   93  A    between atoms: _232  and  _233
REMARK   94  A    between atoms: _236  and  _238
REMARK   95  A    between atoms: _238  and  _239
REMARK   96  A    between atoms: _238  and  _241
REMARK   97  A    between atoms: _241  and  _242
REMARK   98  A    between atoms: _245  and  _247
REMARK   99  A    between atoms: _247  and  _248
REMARK  100  A    between atoms: _250  and  _252
REMARK  101  A    between atoms: _252  and  _253
REMARK  102  A    between atoms: _252  and  _255
REMARK  103  A    between atoms: _255  and  _256
REMARK  104  A    between atoms: _256  and  _257
REMARK  105  A    between atoms: _257  and  _258
REMARK  106  A    between atoms: _267  and  _269
REMARK  107  A    between atoms: _269  and  _270
REMARK  108  A    between atoms: _269  and  _272
REMARK  109  A    between atoms: _272  and  _273
REMARK  110  A    between atoms: _278  and  _280
REMARK  111  A    between atoms: _280  and  _281
REMARK  112  A    between atoms: _280  and  _283
REMARK  113  A    between atoms: _283  and  _284
REMARK  114  A    between atoms: _284  and  _285
REMARK  115  A    between atoms: _285  and  _286
REMARK  116  A    between atoms: _296  and  _297
REMARK  117  A    between atoms: _302  and  _304
REMARK  118  A    between atoms: _304  and  _305
REMARK  119  A    between atoms: _304  and  _307
REMARK  120  A    between atoms: _307  and  _308
REMARK  121  A    between atoms: _311  and  _313
REMARK  122  A    between atoms: _313  and  _314
REMARK  123  A    between atoms: _313  and  _316
REMARK  124  A    between atoms: _316  and  _317
REMARK  125  A    between atoms: _320  and  _322
REMARK  126  A    between atoms: _322  and  _323
REMARK  127  A    between atoms: _322  and  _325
REMARK  128  A    between atoms: _325  and  _326
REMARK  129  A    between atoms: _329  and  _331
REMARK  130  A    between atoms: _331  and  _332
REMARK  131  A    between atoms: _331  and  _334
REMARK  132  A    between atoms: _334  and  _335
REMARK  133  A    between atoms: _338  and  _340
REMARK  134  A    between atoms: _340  and  _341
REMARK  135  A    between atoms: _340  and  _343
REMARK  136  A    between atoms: _343  and  _344
REMARK  137  A    between atoms: _347  and  _349
REMARK  138  A    between atoms: _349  and  _350
REMARK  139  A    between atoms: _352  and  _354
REMARK  140  A    between atoms: _354  and  _355
REMARK  141  A    between atoms: _358  and  _360
REMARK  142  A    between atoms: _360  and  _361
REMARK  143  A    between atoms: _360  and  _363
REMARK  144  A    between atoms: _363  and  _364
REMARK  145  A    between atoms: _367  and  _369
REMARK  146  A    between atoms: _369  and  _370
REMARK  147  A    between atoms: _369  and  _372
REMARK  148  A    between atoms: _372  and  _373
REMARK  149  A    between atoms: _376  and  _378
REMARK  150  A    between atoms: _378  and  _379
REMARK  151  A    between atoms: _378  and  _381
REMARK  152  A    between atoms: _381  and  _382
REMARK  153  A    between atoms: _385  and  _387
REMARK  154  A    between atoms: _387  and  _388
REMARK  155  A    between atoms: _387  and  _390
REMARK  156  A    between atoms: _393  and  _395
REMARK  157  A    between atoms: _395  and  _396
REMARK  158  A    between atoms: _395  and  _398
REMARK  159  A    between atoms: _398  and  _399
REMARK  160  A    between atoms: _399  and  _400
REMARK  161  A    between atoms: _400  and  _401
REMARK  162  A    between atoms: _401  and  _402
REMARK  163  A    between atoms: _406  and  _408
REMARK  164  A    between atoms: _408  and  _409
REMARK  165  A    between atoms: _408  and  _411
REMARK  166  A    between atoms: _411  and  _412
REMARK  167  A    between atoms: _412  and  _413
REMARK  168  A    between atoms: _415  and  _417
REMARK  169  A    between atoms: _417  and  _418
REMARK  170  A    between atoms: _417  and  _420
REMARK  171  A    between atoms: _420  and  _421
REMARK  172  A    between atoms: _424  and  _426
REMARK  173  A    between atoms: _426  and  _427
REMARK  174  A    between atoms: _429  and  _431
REMARK  175  A    between atoms: _431  and  _432
REMARK  176  A    between atoms: _434  and  _436
REMARK  177  A    between atoms: _436  and  _437
REMARK  178  A    between atoms: _436  and  _439
REMARK  179  A    between atoms: _439  and  _440
REMARK  180  A    between atoms: _443  and  _445
REMARK  181  A    between atoms: _445  and  _446
REMARK  182  A    between atoms: _448  and  _450
REMARK  183  A    between atoms: _450  and  _451
REMARK  184  A    between atoms: _453  and  _455
REMARK  185  A    between atoms: _455  and  _456
REMARK  186  A    between atoms: _455  and  _458
REMARK  187  A    between atoms: _458  and  _459
REMARK  188  A    between atoms: _465  and  _467
REMARK  189  A    between atoms: _467  and  _468
REMARK  190  A    between atoms: _467  and  _470
REMARK  191  A    between atoms: _470  and  _471
REMARK  192  A    between atoms: _474  and  _476
REMARK  193  A    between atoms: _476  and  _477
REMARK  194  A    between atoms: _476  and  _479
REMARK  195  A    between atoms: _482  and  _484
REMARK  196  A    between atoms: _484  and  _485
REMARK  197  A    between atoms: _484  and  _487
REMARK  198  A    between atoms: _487  and  _488
REMARK  199  A    between atoms: _491  and  _493
REMARK  200  A    between atoms: _493  and  _494
REMARK  201  A    between atoms: _493  and  _496
REMARK  202  A    between atoms: _496  and  _497
REMARK  203  A    between atoms: _501  and  _502
REMARK  204  A    between atoms: _507  and  _509
REMARK  205  A    between atoms: _509  and  _510
REMARK  206  A    between atoms: _509  and  _512
REMARK  207  A    between atoms: _515  and  _517
REMARK  208  A    between atoms: _517  and  _518
REMARK  209  A    between atoms: _517  and  _520
REMARK  210  A    between atoms: _520  and  _521
REMARK  211  A    between atoms: _526  and  _528
REMARK  212  A    between atoms: _528  and  _529
REMARK  213  A    between atoms: _528  and  _531
REMARK  214  A    between atoms: _531  and  _532
REMARK  215  A    between atoms: _535  and  _537
REMARK  216  A    between atoms: _537  and  _538
REMARK  217  A    between atoms: _537  and  _540
REMARK  218  A    between atoms: _540  and  _541
REMARK  219  A    between atoms: _544  and  _546
REMARK  220  A    between atoms: _546  and  _547
REMARK  221  A    between atoms: _549  and  _551
REMARK  222  A    between atoms: _551  and  _552
REMARK  223  A    between atoms: _551  and  _554
REMARK  224  A    between atoms: _554  and  _555
REMARK  225  A    between atoms: _555  and  _556
REMARK  226  A    between atoms: _556  and  _557
REMARK  227  A    between atoms: _566  and  _568
REMARK  228  A    between atoms: _568  and  _569
REMARK  229  A    between atoms: _568  and  _571
REMARK  230  A    between atoms: _571  and  _572
REMARK                            x       y       z     vdW  Elec       q    Type
REMARK                         _______ _______ _______ _____ _____    ______ ____
ROOT
ATOM      1  O   HOH     1      22.503  38.921  17.756  0.00  0.00    +0.000 OA
ENDROOT
TORSDOF 0
REMARK  Name = ../refined-set-2016/3o9i/3o9i_pocket.pdb
REMARK  230 active torsions:
REMARK  status: ('A' for Active; 'I' for Inactive)
REMARK    1  A    between atoms: _1  and  _3
REMARK    2  A    between atoms: _3  and  _4
REMARK    3  A    between atoms: _3  and  _6
REMARK    4  A    between atoms: _6  and  _7
REMARK    5  A    between atoms: _7  and  _8
REMARK    6  A    between atoms: _8  and  _9
REMARK    7  A    between atoms: _18  and  _20
REMARK    8  A    between atoms: _20  and  _21
REMARK    9  A    between atoms: _20  and  _23
REMARK   10  A    between atoms: _23  and  _24
REMARK   11  A    between atoms: _27  and  _29
REMARK   12  A    between atoms: _29  and  _30
REMARK   13  A    between atoms: _29  and  _32
REMARK   14  A    between atoms: _32  and  _33
REMARK   15  A    between atoms: _36  and  _38
REMARK   16  A    between atoms: _38  and  _39
REMARK   17  A    between atoms: _38  and  _41
REMARK   18  A    between atoms: _41  and  _42
REMARK   19  A    between atoms: _45  and  _47
REMARK   20  A    between atoms: _47  and  _48
REMARK   21  A    between atoms: _47  and  _50
REMARK   22  A    between atoms: _50  and  _51
REMARK   23  A    between atoms: _54  and  _56
REMARK   24  A    between atoms: _56  and  _57
REMARK   25  A    between atoms: _56  and  _59
REMARK   26  A    between atoms: _59  and  _60
REMARK   27  A    between atoms: _63  and  _65
REMARK   28  A    between atoms: _65  and  _66
REMARK   29  A    between atoms: _68  and  _70
REMARK   30  A    between atoms: _70  and  _71
REMARK   31  A    between atoms: _74  and  _76
REMARK   32  A    between atoms: _76  and  _77
REMARK   33  A    between atoms: _76  and  _79
REMARK   34  A    between atoms: _79  and  _80
REMARK   35  A    between atoms: _83  and  _85
REMARK   36  A    between atoms: _85  and  _86
REMARK   37  A    between atoms: _85  and  _88
REMARK   38  A    between atoms: _88  and  _89
REMARK   39  A    between atoms: _92  and  _94
REMARK   40  A    between atoms: _94  and  _95
REMARK   41  A    between atoms: _94  and  _97
REMARK   42  A    between atoms: _97  and  _98
REMARK   43  A    between atoms: _101  and  _103
REMARK   44  A    between atoms: _103  and  _104
REMARK   45  A    between atoms: _103  and  _106
REMARK   46  A    between atoms: _109  and  _111
REMARK   47  A    between atoms: _111  and  _112
REMARK   48  A    between atoms: _111  and  _114
REMARK   49  A    between atoms: _114  and  _115
REMARK   50  A    between atoms: _118  and  _120
REMARK   51  A    between atoms: _120  and  _121
REMARK   52  A    between atoms: _123  and  _125
REMARK   53  A    between atoms: _125  and  _126
REMARK   54  A    between atoms: _128  and  _130
REMARK   55  A    between atoms: _130  and  _131
REMARK   56  A    between atoms: _130  and  _133
REMARK   57  A    between atoms: _133  and  _134
REMARK   58  A    between atoms: _137  and  _139
REMARK   59  A    between atoms: _139  and  _140
REMARK   60  A    between atoms: _142  and  _144
REMARK   61  A    between atoms: _144  and  _145
REMARK   62  A    between atoms: _147  and  _149
REMARK   63  A    between atoms: _149  and  _150
REMARK   64  A    between atoms: _149  and  _152
REMARK   65  A    between atoms: _152  and  _153
REMARK   66  A    between atoms: _159  and  _161
REMARK   67  A    between atoms: _161  and  _162
REMARK   68  A    between atoms: _161  and  _164
REMARK   69  A    between atoms: _164  and  _165
REMARK   70  A    between atoms: _168  and  _170
REMARK   71  A    between atoms: _170  and  _171
REMARK   72  A    between atoms: _170  and  _173
REMARK   73  A    between atoms: _176  and  _178
REMARK   74  A    between atoms: _178  and  _179
REMARK   75  A    between atoms: _178  and  _181
REMARK   76  A    between atoms: _181  and  _182
REMARK   77  A    between atoms: _186  and  _187
REMARK   78  A    between atoms: _192  and  _194
REMARK   79  A    between atoms: _194  and  _195
REMARK   80  A    between atoms: _194  and  _197
REMARK   81  A    between atoms: _197  and  _198
REMARK   82  A    between atoms: _202  and  _203
REMARK   83  A    between atoms: _208  and  _210
REMARK   84  A    between atoms: _210  and  _211
REMARK   85  A    between atoms: _210  and  _213
REMARK   86  A    between atoms: _216  and  _218
REMARK   87  A    between atoms: _218  and  _219
REMARK   88  A    between atoms: _218  and  _221
REMARK   89  A    between atoms: _221  and  _222
REMARK   90  A    between atoms: _227  and  _229
REMARK   91  A    between atoms: _229  and  _230
REMARK   92  A    between atoms: _229  and  _232
REMARK   93  A    between atoms: _232  and  _233
REMARK   94  A    between atoms: _236  and  _238
REMARK   95  A    between atoms: _238  and  _239
REMARK   96  A    between atoms: _238  and  _241
REMARK   97  A    between atoms: _241  and  _242
REMARK   98  A    between atoms: _245  and  _247
REMARK   99  A    between atoms: _247  and  _248
REMARK  100  A    between atoms: _250  and  _252
REMARK  101  A    between atoms: _252  and  _253
REMARK  102  A    between atoms: _252  and  _255
REMARK  103  A    between atoms: _255  and  _256
REMARK  104  A    between atoms: _256  and  _257
REMARK  105  A    between atoms: _257  and  _258
REMARK  106  A    between atoms: _267  and  _269
REMARK  107  A    between atoms: _269  and  _270
REMARK  108  A    between atoms: _269  and  _272
REMARK  109  A    between atoms: _272  and  _273
REMARK  110  A    between atoms: _278  and  _280
REMARK  111  A    between atoms: _280  and  _281
REMARK  112  A    between atoms: _280  and  _283
REMARK  113  A    between atoms: _283  and  _284
REMARK  114  A    between atoms: _284  and  _285
REMARK  115  A    between atoms: _285  and  _286
REMARK  116  A    between atoms: _296  and  _297
REMARK  117  A    between atoms: _302  and  _304
REMARK  118  A    between atoms: _304  and  _305
REMARK  119  A    between atoms: _304  and  _307
REMARK  120  A    between atoms: _307  and  _308
REMARK  121  A    between atoms: _311  and  _313
REMARK  122  A    between atoms: _313  and  _314
REMARK  123  A    between atoms: _313  and  _316
REMARK  124  A    between atoms: _316  and  _317
REMARK  125  A    between atoms: _320  and  _322
REMARK  126  A    between atoms: _322  and  _323
REMARK  127  A    between atoms: _322  and  _325
REMARK  128  A    between atoms: _325  and  _326
REMARK  129  A    between atoms: _329  and  _331
REMARK  130  A    between atoms: _331  and  _332
REMARK  131  A    between atoms: _331  and  _334
REMARK  132  A    between atoms: _334  and  _335
REMARK  133  A    between atoms: _338  and  _340
REMARK  134  A    between atoms: _340  and  _341
REMARK  135  A    between atoms: _340  and  _343
REMARK  136  A    between atoms: _343  and  _344
REMARK  137  A    between atoms: _347  and  _349
REMARK  138  A    between atoms: _349  and  _350
REMARK  139  A    between atoms: _352  and  _354
REMARK  140  A    between atoms: _354  and  _355
REMARK  141  A    between atoms: _358  and  _360
REMARK  142  A    between atoms: _360  and  _361
REMARK  143  A    between atoms: _360  and  _363
REMARK  144  A    between atoms: _363  and  _364
REMARK  145  A    between atoms: _367  and  _369
REMARK  146  A    between atoms: _369  and  _370
REMARK  147  A    between atoms: _369  and  _372
REMARK  148  A    between atoms: _372  and  _373
REMARK  149  A    between atoms: _376  and  _378
REMARK  150  A    between atoms: _378  and  _379
REMARK  151  A    between atoms: _378  and  _381
REMARK  152  A    between atoms: _381  and  _382
REMARK  153  A    between atoms: _385  and  _387
REMARK  154  A    between atoms: _387  and  _388
REMARK  155  A    between atoms: _387  and  _390
REMARK  156  A    between atoms: _393  and  _395
REMARK  157  A    between atoms: _395  and  _396
REMARK  158  A    between atoms: _395  and  _398
REMARK  159  A    between atoms: _398  and  _399
REMARK  160  A    between atoms: _399  and  _400
REMARK  161  A    between atoms: _400  and  _401
REMARK  162  A    between atoms: _401  and  _402
REMARK  163  A    between atoms: _406  and  _408
REMARK  164  A    between atoms: _408  and  _409
REMARK  165  A    between atoms: _408  and  _411
REMARK  166  A    between atoms: _411  and  _412
REMARK  167  A    between atoms: _412  and  _413
REMARK  168  A    between atoms: _415  and  _417
REMARK  169  A    between atoms: _417  and  _418
REMARK  170  A    between atoms: _417  and  _420
REMARK  171  A    between atoms: _420  and  _421
REMARK  172  A    between atoms: _424  and  _426
REMARK  173  A    between atoms: _426  and  _427
REMARK  174  A    between atoms: _429  and  _431
REMARK  175  A    between atoms: _431  and  _432
REMARK  176  A    between atoms: _434  and  _436
REMARK  177  A    between atoms: _436  and  _437
REMARK  178  A    between atoms: _436  and  _439
REMARK  179  A    between atoms: _439  and  _440
REMARK  180  A    between atoms: _443  and  _445
REMARK  181  A    between atoms: _445  and  _446
REMARK  182  A    between atoms: _448  and  _450
REMARK  183  A    between atoms: _450  and  _451
REMARK  184  A    between atoms: _453  and  _455
REMARK  185  A    between atoms: _455  and  _456
REMARK  186  A    between atoms: _455  and  _458
REMARK  187  A    between atoms: _458  and  _459
REMARK  188  A    between atoms: _465  and  _467
REMARK  189  A    between atoms: _467  and  _468
REMARK  190  A    between atoms: _467  and  _470
REMARK  191  A    between atoms: _470  and  _471
REMARK  192  A    between atoms: _474  and  _476
REMARK  193  A    between atoms: _476  and  _477
REMARK  194  A    between atoms: _476  and  _479
REMARK  195  A    between atoms: _482  and  _484
REMARK  196  A    between atoms: _484  and  _485
REMARK  197  A    between atoms: _484  and  _487
REMARK  198  A    between atoms: _487  and  _488
REMARK  199  A    between atoms: _491  and  _493
REMARK  200  A    between atoms: _493  and  _494
REMARK  201  A    between atoms: _493  and  _496
REMARK  202  A    between atoms: _496  and  _497
REMARK  203  A    between atoms: _501  and  _502
REMARK  204  A    between atoms: _507  and  _509
REMARK  205  A    between atoms: _509  and  _510
REMARK  206  A    between atoms: _509  and  _512
REMARK  207  A    between atoms: _515  and  _517
REMARK  208  A    between atoms: _517  and  _518
REMARK  209  A    between atoms: _517  and  _520
REMARK  210  A    between atoms: _520  and  _521
REMARK  211  A    between atoms: _526  and  _528
REMARK  212  A    between atoms: _528  and  _529
REMARK  213  A    between atoms: _528  and  _531
REMARK  214  A    between atoms: _531  and  _532
REMARK  215  A    between atoms: _535  and  _537
REMARK  216  A    between atoms: _537  and  _538
REMARK  217  A    between atoms: _537  and  _540
REMARK  218  A    between atoms: _540  and  _541
REMARK  219  A    between atoms: _544  and  _546
REMARK  220  A    between atoms: _546  and  _547
REMARK  221  A    between atoms: _549  and  _551
REMARK  222  A    between atoms: _551  and  _552
REMARK  223  A    between atoms: _551  and  _554
REMARK  224  A    between atoms: _554  and  _555
REMARK  225  A    between atoms: _555  and  _556
REMARK  226  A    between atoms: _556  and  _557
REMARK  227  A    between atoms: _566  and  _568
REMARK  228  A    between atoms: _568  and  _569
REMARK  229  A    between atoms: _568  and  _571
REMARK  230  A    between atoms: _571  and  _572
REMARK                            x       y       z     vdW  Elec       q    Type
REMARK                         _______ _______ _______ _____ _____    ______ ____
ROOT
ATOM      1  O   HOH     1      23.122  25.076   5.353  0.00  0.00    +0.000 OA
ENDROOT
TORSDOF 0
REMARK  Name = ../refined-set-2016/3o9i/3o9i_pocket.pdb
REMARK  230 active torsions:
REMARK  status: ('A' for Active; 'I' for Inactive)
REMARK    1  A    between atoms: _1  and  _3
REMARK    2  A    between atoms: _3  and  _4
REMARK    3  A    between atoms: _3  and  _6
REMARK    4  A    between atoms: _6  and  _7
REMARK    5  A    between atoms: _7  and  _8
REMARK    6  A    between atoms: _8  and  _9
REMARK    7  A    between atoms: _18  and  _20
REMARK    8  A    between atoms: _20  and  _21
REMARK    9  A    between atoms: _20  and  _23
REMARK   10  A    between atoms: _23  and  _24
REMARK   11  A    between atoms: _27  and  _29
REMARK   12  A    between atoms: _29  and  _30
REMARK   13  A    between atoms: _29  and  _32
REMARK   14  A    between atoms: _32  and  _33
REMARK   15  A    between atoms: _36  and  _38
REMARK   16  A    between atoms: _38  and  _39
REMARK   17  A    between atoms: _38  and  _41
REMARK   18  A    between atoms: _41  and  _42
REMARK   19  A    between atoms: _45  and  _47
REMARK   20  A    between atoms: _47  and  _48
REMARK   21  A    between atoms: _47  and  _50
REMARK   22  A    between atoms: _50  and  _51
REMARK   23  A    between atoms: _54  and  _56
REMARK   24  A    between atoms: _56  and  _57
REMARK   25  A    between atoms: _56  and  _59
REMARK   26  A    between atoms: _59  and  _60
REMARK   27  A    between atoms: _63  and  _65
REMARK   28  A    between atoms: _65  and  _66
REMARK   29  A    between atoms: _68  and  _70
REMARK   30  A    between atoms: _70  and  _71
REMARK   31  A    between atoms: _74  and  _76
REMARK   32  A    between atoms: _76  and  _77
REMARK   33  A    between atoms: _76  and  _79
REMARK   34  A    between atoms: _79  and  _80
REMARK   35  A    between atoms: _83  and  _85
REMARK   36  A    between atoms: _85  and  _86
REMARK   37  A    between atoms: _85  and  _88
REMARK   38  A    between atoms: _88  and  _89
REMARK   39  A    between atoms: _92  and  _94
REMARK   40  A    between atoms: _94  and  _95
REMARK   41  A    between atoms: _94  and  _97
REMARK   42  A    between atoms: _97  and  _98
REMARK   43  A    between atoms: _101  and  _103
REMARK   44  A    between atoms: _103  and  _104
REMARK   45  A    between atoms: _103  and  _106
REMARK   46  A    between atoms: _109  and  _111
REMARK   47  A    between atoms: _111  and  _112
REMARK   48  A    between atoms: _111  and  _114
REMARK   49  A    between atoms: _114  and  _115
REMARK   50  A    between atoms: _118  and  _120
REMARK   51  A    between atoms: _120  and  _121
REMARK   52  A    between atoms: _123  and  _125
REMARK   53  A    between atoms: _125  and  _126
REMARK   54  A    between atoms: _128  and  _130
REMARK   55  A    between atoms: _130  and  _131
REMARK   56  A    between atoms: _130  and  _133
REMARK   57  A    between atoms: _133  and  _134
REMARK   58  A    between atoms: _137  and  _139
REMARK   59  A    between atoms: _139  and  _140
REMARK   60  A    between atoms: _142  and  _144
REMARK   61  A    between atoms: _144  and  _145
REMARK   62  A    between atoms: _147  and  _149
REMARK   63  A    between atoms: _149  and  _150
REMARK   64  A    between atoms: _149  and  _152
REMARK   65  A    between atoms: _152  and  _153
REMARK   66  A    between atoms: _159  and  _161
REMARK   67  A    between atoms: _161  and  _162
REMARK   68  A    between atoms: _161  and  _164
REMARK   69  A    between atoms: _164  and  _165
REMARK   70  A    between atoms: _168  and  _170
REMARK   71  A    between atoms: _170  and  _171
REMARK   72  A    between atoms: _170  and  _173
REMARK   73  A    between atoms: _176  and  _178
REMARK   74  A    between atoms: _178  and  _179
REMARK   75  A    between atoms: _178  and  _181
REMARK   76  A    between atoms: _181  and  _182
REMARK   77  A    between atoms: _186  and  _187
REMARK   78  A    between atoms: _192  and  _194
REMARK   79  A    between atoms: _194  and  _195
REMARK   80  A    between atoms: _194  and  _197
REMARK   81  A    between atoms: _197  and  _198
REMARK   82  A    between atoms: _202  and  _203
REMARK   83  A    between atoms: _208  and  _210
REMARK   84  A    between atoms: _210  and  _211
REMARK   85  A    between atoms: _210  and  _213
REMARK   86  A    between atoms: _216  and  _218
REMARK   87  A    between atoms: _218  and  _219
REMARK   88  A    between atoms: _218  and  _221
REMARK   89  A    between atoms: _221  and  _222
REMARK   90  A    between atoms: _227  and  _229
REMARK   91  A    between atoms: _229  and  _230
REMARK   92  A    between atoms: _229  and  _232
REMARK   93  A    between atoms: _232  and  _233
REMARK   94  A    between atoms: _236  and  _238
REMARK   95  A    between atoms: _238  and  _239
REMARK   96  A    between atoms: _238  and  _241
REMARK   97  A    between atoms: _241  and  _242
REMARK   98  A    between atoms: _245  and  _247
REMARK   99  A    between atoms: _247  and  _248
REMARK  100  A    between atoms: _250  and  _252
REMARK  101  A    between atoms: _252  and  _253
REMARK  102  A    between atoms: _252  and  _255
REMARK  103  A    between atoms: _255  and  _256
REMARK  104  A    between atoms: _256  and  _257
REMARK  105  A    between atoms: _257  and  _258
REMARK  106  A    between atoms: _267  and  _269
REMARK  107  A    between atoms: _269  and  _270
REMARK  108  A    between atoms: _269  and  _272
REMARK  109  A    between atoms: _272  and  _273
REMARK  110  A    between atoms: _278  and  _280
REMARK  111  A    between atoms: _280  and  _281
REMARK  112  A    between atoms: _280  and  _283
REMARK  113  A    between atoms: _283  and  _284
REMARK  114  A    between atoms: _284  and  _285
REMARK  115  A    between atoms: _285  and  _286
REMARK  116  A    between atoms: _296  and  _297
REMARK  117  A    between atoms: _302  and  _304
REMARK  118  A    between atoms: _304  and  _305
REMARK  119  A    between atoms: _304  and  _307
REMARK  120  A    between atoms: _307  and  _308
REMARK  121  A    between atoms: _311  and  _313
REMARK  122  A    between atoms: _313  and  _314
REMARK  123  A    between atoms: _313  and  _316
REMARK  124  A    between atoms: _316  and  _317
REMARK  125  A    between atoms: _320  and  _322
REMARK  126  A    between atoms: _322  and  _323
REMARK  127  A    between atoms: _322  and  _325
REMARK  128  A    between atoms: _325  and  _326
REMARK  129  A    between atoms: _329  and  _331
REMARK  130  A    between atoms: _331  and  _332
REMARK  131  A    between atoms: _331  and  _334
REMARK  132  A    between atoms: _334  and  _335
REMARK  133  A    between atoms: _338  and  _340
REMARK  134  A    between atoms: _340  and  _341
REMARK  135  A    between atoms: _340  and  _343
REMARK  136  A    between atoms: _343  and  _344
REMARK  137  A    between atoms: _347  and  _349
REMARK  138  A    between atoms: _349  and  _350
REMARK  139  A    between atoms: _352  and  _354
REMARK  140  A    between atoms: _354  and  _355
REMARK  141  A    between atoms: _358  and  _360
REMARK  142  A    between atoms: _360  and  _361
REMARK  143  A    between atoms: _360  and  _363
REMARK  144  A    between atoms: _363  and  _364
REMARK  145  A    between atoms: _367  and  _369
REMARK  146  A    between atoms: _369  and  _370
REMARK  147  A    between atoms: _369  and  _372
REMARK  148  A    between atoms: _372  and  _373
REMARK  149  A    between atoms: _376  and  _378
REMARK  150  A    between atoms: _378  and  _379
REMARK  151  A    between atoms: _378  and  _381
REMARK  152  A    between atoms: _381  and  _382
REMARK  153  A    between atoms: _385  and  _387
REMARK  154  A    between atoms: _387  and  _388
REMARK  155  A    between atoms: _387  and  _390
REMARK  156  A    between atoms: _393  and  _395
REMARK  157  A    between atoms: _395  and  _396
REMARK  158  A    between atoms: _395  and  _398
REMARK  159  A    between atoms: _398  and  _399
REMARK  160  A    between atoms: _399  and  _400
REMARK  161  A    between atoms: _400  and  _401
REMARK  162  A    between atoms: _401  and  _402
REMARK  163  A    between atoms: _406  and  _408
REMARK  164  A    between atoms: _408  and  _409
REMARK  165  A    between atoms: _408  and  _411
REMARK  166  A    between atoms: _411  and  _412
REMARK  167  A    between atoms: _412  and  _413
REMARK  168  A    between atoms: _415  and  _417
REMARK  169  A    between atoms: _417  and  _418
REMARK  170  A    between atoms: _417  and  _420
REMARK  171  A    between atoms: _420  and  _421
REMARK  172  A    between atoms: _424  and  _426
REMARK  173  A    between atoms: _426  and  _427
REMARK  174  A    between atoms: _429  and  _431
REMARK  175  A    between atoms: _431  and  _432
REMARK  176  A    between atoms: _434  and  _436
REMARK  177  A    between atoms: _436  and  _437
REMARK  178  A    between atoms: _436  and  _439
REMARK  179  A    between atoms: _439  and  _440
REMARK  180  A    between atoms: _443  and  _445
REMARK  181  A    between atoms: _445  and  _446
REMARK  182  A    between atoms: _448  and  _450
REMARK  183  A    between atoms: _450  and  _451
REMARK  184  A    between atoms: _453  and  _455
REMARK  185  A    between atoms: _455  and  _456
REMARK  186  A    between atoms: _455  and  _458
REMARK  187  A    between atoms: _458  and  _459
REMARK  188  A    between atoms: _465  and  _467
REMARK  189  A    between atoms: _467  and  _468
REMARK  190  A    between atoms: _467  and  _470
REMARK  191  A    between atoms: _470  and  _471
REMARK  192  A    between atoms: _474  and  _476
REMARK  193  A    between atoms: _476  and  _477
REMARK  194  A    between atoms: _476  and  _479
REMARK  195  A    between atoms: _482  and  _484
REMARK  196  A    between atoms: _484  and  _485
REMARK  197  A    between atoms: _484  and  _487
REMARK  198  A    between atoms: _487  and  _488
REMARK  199  A    between atoms: _491  and  _493
REMARK  200  A    between atoms: _493  and  _494
REMARK  201  A    between atoms: _493  and  _496
REMARK  202  A    between atoms: _496  and  _497
REMARK  203  A    between atoms: _501  and  _502
REMARK  204  A    between atoms: _507  and  _509
REMARK  205  A    between atoms: _509  and  _510
REMARK  206  A    between atoms: _509  and  _512
REMARK  207  A    between atoms: _515  and  _517
REMARK  208  A    between atoms: _517  and  _518
REMARK  209  A    between atoms: _517  and  _520
REMARK  210  A    between atoms: _520  and  _521
REMARK  211  A    between atoms: _526  and  _528
REMARK  212  A    between atoms: _528  and  _529
REMARK  213  A    between atoms: _528  and  _531
REMARK  214  A    between atoms: _531  and  _532
REMARK  215  A    between atoms: _535  and  _537
REMARK  216  A    between atoms: _537  and  _538
REMARK  217  A    between atoms: _537  and  _540
REMARK  218  A    between atoms: _540  and  _541
REMARK  219  A    between atoms: _544  and  _546
REMARK  220  A    between atoms: _546  and  _547
REMARK  221  A    between atoms: _549  and  _551
REMARK  222  A    between atoms: _551  and  _552
REMARK  223  A    between atoms: _551  and  _554
REMARK  224  A    between atoms: _554  and  _555
REMARK  225  A    between atoms: _555  and  _556
REMARK  226  A    between atoms: _556  and  _557
REMARK  227  A    between atoms: _566  and  _568
REMARK  228  A    between atoms: _568  and  _569
REMARK  229  A    between atoms: _568  and  _571
REMARK  230  A    between atoms: _571  and  _572
REMARK                            x       y       z     vdW  Elec       q    Type
REMARK                         _______ _______ _______ _____ _____    ______ ____
ROOT
ATOM      1  O   HOH     1      24.812  40.117  16.773  0.00  0.00    +0.000 OA
ENDROOT
TORSDOF 0
REMARK  Name = ../refined-set-2016/3o9i/3o9i_pocket.pdb
REMARK  230 active torsions:
REMARK  status: ('A' for Active; 'I' for Inactive)
REMARK    1  A    between atoms: _1  and  _3
REMARK    2  A    between atoms: _3  and  _4
REMARK    3  A    between atoms: _3  and  _6
REMARK    4  A    between atoms: _6  and  _7
REMARK    5  A    between atoms: _7  and  _8
REMARK    6  A    between atoms: _8  and  _9
REMARK    7  A    between atoms: _18  and  _20
REMARK    8  A    between atoms: _20  and  _21
REMARK    9  A    between atoms: _20  and  _23
REMARK   10  A    between atoms: _23  and  _24
REMARK   11  A    between atoms: _27  and  _29
REMARK   12  A    between atoms: _29  and  _30
REMARK   13  A    between atoms: _29  and  _32
REMARK   14  A    between atoms: _32  and  _33
REMARK   15  A    between atoms: _36  and  _38
REMARK   16  A    between atoms: _38  and  _39
REMARK   17  A    between atoms: _38  and  _41
REMARK   18  A    between atoms: _41  and  _42
REMARK   19  A    between atoms: _45  and  _47
REMARK   20  A    between atoms: _47  and  _48
REMARK   21  A    between atoms: _47  and  _50
REMARK   22  A    between atoms: _50  and  _51
REMARK   23  A    between atoms: _54  and  _56
REMARK   24  A    between atoms: _56  and  _57
REMARK   25  A    between atoms: _56  and  _59
REMARK   26  A    between atoms: _59  and  _60
REMARK   27  A    between atoms: _63  and  _65
REMARK   28  A    between atoms: _65  and  _66
REMARK   29  A    between atoms: _68  and  _70
REMARK   30  A    between atoms: _70  and  _71
REMARK   31  A    between atoms: _74  and  _76
REMARK   32  A    between atoms: _76  and  _77
REMARK   33  A    between atoms: _76  and  _79
REMARK   34  A    between atoms: _79  and  _80
REMARK   35  A    between atoms: _83  and  _85
REMARK   36  A    between atoms: _85  and  _86
REMARK   37  A    between atoms: _85  and  _88
REMARK   38  A    between atoms: _88  and  _89
REMARK   39  A    between atoms: _92  and  _94
REMARK   40  A    between atoms: _94  and  _95
REMARK   41  A    between atoms: _94  and  _97
REMARK   42  A    between atoms: _97  and  _98
REMARK   43  A    between atoms: _101  and  _103
REMARK   44  A    between atoms: _103  and  _104
REMARK   45  A    between atoms: _103  and  _106
REMARK   46  A    between atoms: _109  and  _111
REMARK   47  A    between atoms: _111  and  _112
REMARK   48  A    between atoms: _111  and  _114
REMARK   49  A    between atoms: _114  and  _115
REMARK   50  A    between atoms: _118  and  _120
REMARK   51  A    between atoms: _120  and  _121
REMARK   52  A    between atoms: _123  and  _125
REMARK   53  A    between atoms: _125  and  _126
REMARK   54  A    between atoms: _128  and  _130
REMARK   55  A    between atoms: _130  and  _131
REMARK   56  A    between atoms: _130  and  _133
REMARK   57  A    between atoms: _133  and  _134
REMARK   58  A    between atoms: _137  and  _139
REMARK   59  A    between atoms: _139  and  _140
REMARK   60  A    between atoms: _142  and  _144
REMARK   61  A    between atoms: _144  and  _145
REMARK   62  A    between atoms: _147  and  _149
REMARK   63  A    between atoms: _149  and  _150
REMARK   64  A    between atoms: _149  and  _152
REMARK   65  A    between atoms: _152  and  _153
REMARK   66  A    between atoms: _159  and  _161
REMARK   67  A    between atoms: _161  and  _162
REMARK   68  A    between atoms: _161  and  _164
REMARK   69  A    between atoms: _164  and  _165
REMARK   70  A    between atoms: _168  and  _170
REMARK   71  A    between atoms: _170  and  _171
REMARK   72  A    between atoms: _170  and  _173
REMARK   73  A    between atoms: _176  and  _178
REMARK   74  A    between atoms: _178  and  _179
REMARK   75  A    between atoms: _178  and  _181
REMARK   76  A    between atoms: _181  and  _182
REMARK   77  A    between atoms: _186  and  _187
REMARK   78  A    between atoms: _192  and  _194
REMARK   79  A    between atoms: _194  and  _195
REMARK   80  A    between atoms: _194  and  _197
REMARK   81  A    between atoms: _197  and  _198
REMARK   82  A    between atoms: _202  and  _203
REMARK   83  A    between atoms: _208  and  _210
REMARK   84  A    between atoms: _210  and  _211
REMARK   85  A    between atoms: _210  and  _213
REMARK   86  A    between atoms: _216  and  _218
REMARK   87  A    between atoms: _218  and  _219
REMARK   88  A    between atoms: _218  and  _221
REMARK   89  A    between atoms: _221  and  _222
REMARK   90  A    between atoms: _227  and  _229
REMARK   91  A    between atoms: _229  and  _230
REMARK   92  A    between atoms: _229  and  _232
REMARK   93  A    between atoms: _232  and  _233
REMARK   94  A    between atoms: _236  and  _238
REMARK   95  A    between atoms: _238  and  _239
REMARK   96  A    between atoms: _238  and  _241
REMARK   97  A    between atoms: _241  and  _242
REMARK   98  A    between atoms: _245  and  _247
REMARK   99  A    between atoms: _247  and  _248
REMARK  100  A    between atoms: _250  and  _252
REMARK  101  A    between atoms: _252  and  _253
REMARK  102  A    between atoms: _252  and  _255
REMARK  103  A    between atoms: _255  and  _256
REMARK  104  A    between atoms: _256  and  _257
REMARK  105  A    between atoms: _257  and  _258
REMARK  106  A    between atoms: _267  and  _269
REMARK  107  A    between atoms: _269  and  _270
REMARK  108  A    between atoms: _269  and  _272
REMARK  109  A    between atoms: _272  and  _273
REMARK  110  A    between atoms: _278  and  _280
REMARK  111  A    between atoms: _280  and  _281
REMARK  112  A    between atoms: _280  and  _283
REMARK  113  A    between atoms: _283  and  _284
REMARK  114  A    between atoms: _284  and  _285
REMARK  115  A    between atoms: _285  and  _286
REMARK  116  A    between atoms: _296  and  _297
REMARK  117  A    between atoms: _302  and  _304
REMARK  118  A    between atoms: _304  and  _305
REMARK  119  A    between atoms: _304  and  _307
REMARK  120  A    between atoms: _307  and  _308
REMARK  121  A    between atoms: _311  and  _313
REMARK  122  A    between atoms: _313  and  _314
REMARK  123  A    between atoms: _313  and  _316
REMARK  124  A    between atoms: _316  and  _317
REMARK  125  A    between atoms: _320  and  _322
REMARK  126  A    between atoms: _322  and  _323
REMARK  127  A    between atoms: _322  and  _325
REMARK  128  A    between atoms: _325  and  _326
REMARK  129  A    between atoms: _329  and  _331
REMARK  130  A    between atoms: _331  and  _332
REMARK  131  A    between atoms: _331  and  _334
REMARK  132  A    between atoms: _334  and  _335
REMARK  133  A    between atoms: _338  and  _340
REMARK  134  A    between atoms: _340  and  _341
REMARK  135  A    between atoms: _340  and  _343
REMARK  136  A    between atoms: _343  and  _344
REMARK  137  A    between atoms: _347  and  _349
REMARK  138  A    between atoms: _349  and  _350
REMARK  139  A    between atoms: _352  and  _354
REMARK  140  A    between atoms: _354  and  _355
REMARK  141  A    between atoms: _358  and  _360
REMARK  142  A    between atoms: _360  and  _361
REMARK  143  A    between atoms: _360  and  _363
REMARK  144  A    between atoms: _363  and  _364
REMARK  145  A    between atoms: _367  and  _369
REMARK  146  A    between atoms: _369  and  _370
REMARK  147  A    between atoms: _369  and  _372
REMARK  148  A    between atoms: _372  and  _373
REMARK  149  A    between atoms: _376  and  _378
REMARK  150  A    between atoms: _378  and  _379
REMARK  151  A    between atoms: _378  and  _381
REMARK  152  A    between atoms: _381  and  _382
REMARK  153  A    between atoms: _385  and  _387
REMARK  154  A    between atoms: _387  and  _388
REMARK  155  A    between atoms: _387  and  _390
REMARK  156  A    between atoms: _393  and  _395
REMARK  157  A    between atoms: _395  and  _396
REMARK  158  A    between atoms: _395  and  _398
REMARK  159  A    between atoms: _398  and  _399
REMARK  160  A    between atoms: _399  and  _400
REMARK  161  A    between atoms: _400  and  _401
REMARK  162  A    between atoms: _401  and  _402
REMARK  163  A    between atoms: _406  and  _408
REMARK  164  A    between atoms: _408  and  _409
REMARK  165  A    between atoms: _408  and  _411
REMARK  166  A    between atoms: _411  and  _412
REMARK  167  A    between atoms: _412  and  _413
REMARK  168  A    between atoms: _415  and  _417
REMARK  169  A    between atoms: _417  and  _418
REMARK  170  A    between atoms: _417  and  _420
REMARK  171  A    between atoms: _420  and  _421
REMARK  172  A    between atoms: _424  and  _426
REMARK  173  A    between atoms: _426  and  _427
REMARK  174  A    between atoms: _429  and  _431
REMARK  175  A    between atoms: _431  and  _432
REMARK  176  A    between atoms: _434  and  _436
REMARK  177  A    between atoms: _436  and  _437
REMARK  178  A    between atoms: _436  and  _439
REMARK  179  A    between atoms: _439  and  _440
REMARK  180  A    between atoms: _443  and  _445
REMARK  181  A    between atoms: _445  and  _446
REMARK  182  A    between atoms: _448  and  _450
REMARK  183  A    between atoms: _450  and  _451
REMARK  184  A    between atoms: _453  and  _455
REMARK  185  A    between atoms: _455  and  _456
REMARK  186  A    between atoms: _455  and  _458
REMARK  187  A    between atoms: _458  and  _459
REMARK  188  A    between atoms: _465  and  _467
REMARK  189  A    between atoms: _467  and  _468
REMARK  190  A    between atoms: _467  and  _470
REMARK  191  A    between atoms: _470  and  _471
REMARK  192  A    between atoms: _474  and  _476
REMARK  193  A    between atoms: _476  and  _477
REMARK  194  A    between atoms: _476  and  _479
REMARK  195  A    between atoms: _482  and  _484
REMARK  196  A    between atoms: _484  and  _485
REMARK  197  A    between atoms: _484  and  _487
REMARK  198  A    between atoms: _487  and  _488
REMARK  199  A    between atoms: _491  and  _493
REMARK  200  A    between atoms: _493  and  _494
REMARK  201  A    between atoms: _493  and  _496
REMARK  202  A    between atoms: _496  and  _497
REMARK  203  A    between atoms: _501  and  _502
REMARK  204  A    between atoms: _507  and  _509
REMARK  205  A    between atoms: _509  and  _510
REMARK  206  A    between atoms: _509  and  _512
REMARK  207  A    between atoms: _515  and  _517
REMARK  208  A    between atoms: _517  and  _518
REMARK  209  A    between atoms: _517  and  _520
REMARK  210  A    between atoms: _520  and  _521
REMARK  211  A    between atoms: _526  and  _528
REMARK  212  A    between atoms: _528  and  _529
REMARK  213  A    between atoms: _528  and  _531
REMARK  214  A    between atoms: _531  and  _532
REMARK  215  A    between atoms: _535  and  _537
REMARK  216  A    between atoms: _537  and  _538
REMARK  217  A    between atoms: _537  and  _540
REMARK  218  A    between atoms: _540  and  _541
REMARK  219  A    between atoms: _544  and  _546
REMARK  220  A    between atoms: _546  and  _547
REMARK  221  A    between atoms: _549  and  _551
REMARK  222  A    between atoms: _551  and  _552
REMARK  223  A    between atoms: _551  and  _554
REMARK  224  A    between atoms: _554  and  _555
REMARK  225  A    between atoms: _555  and  _556
REMARK  226  A    between atoms: _556  and  _557
REMARK  227  A    between atoms: _566  and  _568
REMARK  228  A    between atoms: _568  and  _569
REMARK  229  A    between atoms: _568  and  _571
REMARK  230  A    between atoms: _571  and  _572
REMARK                            x       y       z     vdW  Elec       q    Type
REMARK                         _______ _______ _______ _____ _____    ______ ____
ROOT
ATOM      1  O   HOH     1      20.124  31.691  11.797  0.00  0.00    +0.000 OA
ENDROOT
TORSDOF 0
REMARK  Name = ../refined-set-2016/3o9i/3o9i_pocket.pdb
REMARK  230 active torsions:
REMARK  status: ('A' for Active; 'I' for Inactive)
REMARK    1  A    between atoms: _1  and  _3
REMARK    2  A    between atoms: _3  and  _4
REMARK    3  A    between atoms: _3  and  _6
REMARK    4  A    between atoms: _6  and  _7
REMARK    5  A    between atoms: _7  and  _8
REMARK    6  A    between atoms: _8  and  _9
REMARK    7  A    between atoms: _18  and  _20
REMARK    8  A    between atoms: _20  and  _21
REMARK    9  A    between atoms: _20  and  _23
REMARK   10  A    between atoms: _23  and  _24
REMARK   11  A    between atoms: _27  and  _29
REMARK   12  A    between atoms: _29  and  _30
REMARK   13  A    between atoms: _29  and  _32
REMARK   14  A    between atoms: _32  and  _33
REMARK   15  A    between atoms: _36  and  _38
REMARK   16  A    between atoms: _38  and  _39
REMARK   17  A    between atoms: _38  and  _41
REMARK   18  A    between atoms: _41  and  _42
REMARK   19  A    between atoms: _45  and  _47
REMARK   20  A    between atoms: _47  and  _48
REMARK   21  A    between atoms: _47  and  _50
REMARK   22  A    between atoms: _50  and  _51
REMARK   23  A    between atoms: _54  and  _56
REMARK   24  A    between atoms: _56  and  _57
REMARK   25  A    between atoms: _56  and  _59
REMARK   26  A    between atoms: _59  and  _60
REMARK   27  A    between atoms: _63  and  _65
REMARK   28  A    between atoms: _65  and  _66
REMARK   29  A    between atoms: _68  and  _70
REMARK   30  A    between atoms: _70  and  _71
REMARK   31  A    between atoms: _74  and  _76
REMARK   32  A    between atoms: _76  and  _77
REMARK   33  A    between atoms: _76  and  _79
REMARK   34  A    between atoms: _79  and  _80
REMARK   35  A    between atoms: _83  and  _85
REMARK   36  A    between atoms: _85  and  _86
REMARK   37  A    between atoms: _85  and  _88
REMARK   38  A    between atoms: _88  and  _89
REMARK   39  A    between atoms: _92  and  _94
REMARK   40  A    between atoms: _94  and  _95
REMARK   41  A    between atoms: _94  and  _97
REMARK   42  A    between atoms: _97  and  _98
REMARK   43  A    between atoms: _101  and  _103
REMARK   44  A    between atoms: _103  and  _104
REMARK   45  A    between atoms: _103  and  _106
REMARK   46  A    between atoms: _109  and  _111
REMARK   47  A    between atoms: _111  and  _112
REMARK   48  A    between atoms: _111  and  _114
REMARK   49  A    between atoms: _114  and  _115
REMARK   50  A    between atoms: _118  and  _120
REMARK   51  A    between atoms: _120  and  _121
REMARK   52  A    between atoms: _123  and  _125
REMARK   53  A    between atoms: _125  and  _126
REMARK   54  A    between atoms: _128  and  _130
REMARK   55  A    between atoms: _130  and  _131
REMARK   56  A    between atoms: _130  and  _133
REMARK   57  A    between atoms: _133  and  _134
REMARK   58  A    between atoms: _137  and  _139
REMARK   59  A    between atoms: _139  and  _140
REMARK   60  A    between atoms: _142  and  _144
REMARK   61  A    between atoms: _144  and  _145
REMARK   62  A    between atoms: _147  and  _149
REMARK   63  A    between atoms: _149  and  _150
REMARK   64  A    between atoms: _149  and  _152
REMARK   65  A    between atoms: _152  and  _153
REMARK   66  A    between atoms: _159  and  _161
REMARK   67  A    between atoms: _161  and  _162
REMARK   68  A    between atoms: _161  and  _164
REMARK   69  A    between atoms: _164  and  _165
REMARK   70  A    between atoms: _168  and  _170
REMARK   71  A    between atoms: _170  and  _171
REMARK   72  A    between atoms: _170  and  _173
REMARK   73  A    between atoms: _176  and  _178
REMARK   74  A    between atoms: _178  and  _179
REMARK   75  A    between atoms: _178  and  _181
REMARK   76  A    between atoms: _181  and  _182
REMARK   77  A    between atoms: _186  and  _187
REMARK   78  A    between atoms: _192  and  _194
REMARK   79  A    between atoms: _194  and  _195
REMARK   80  A    between atoms: _194  and  _197
REMARK   81  A    between atoms: _197  and  _198
REMARK   82  A    between atoms: _202  and  _203
REMARK   83  A    between atoms: _208  and  _210
REMARK   84  A    between atoms: _210  and  _211
REMARK   85  A    between atoms: _210  and  _213
REMARK   86  A    between atoms: _216  and  _218
REMARK   87  A    between atoms: _218  and  _219
REMARK   88  A    between atoms: _218  and  _221
REMARK   89  A    between atoms: _221  and  _222
REMARK   90  A    between atoms: _227  and  _229
REMARK   91  A    between atoms: _229  and  _230
REMARK   92  A    between atoms: _229  and  _232
REMARK   93  A    between atoms: _232  and  _233
REMARK   94  A    between atoms: _236  and  _238
REMARK   95  A    between atoms: _238  and  _239
REMARK   96  A    between atoms: _238  and  _241
REMARK   97  A    between atoms: _241  and  _242
REMARK   98  A    between atoms: _245  and  _247
REMARK   99  A    between atoms: _247  and  _248
REMARK  100  A    between atoms: _250  and  _252
REMARK  101  A    between atoms: _252  and  _253
REMARK  102  A    between atoms: _252  and  _255
REMARK  103  A    between atoms: _255  and  _256
REMARK  104  A    between atoms: _256  and  _257
REMARK  105  A    between atoms: _257  and  _258
REMARK  106  A    between atoms: _267  and  _269
REMARK  107  A    between atoms: _269  and  _270
REMARK  108  A    between atoms: _269  and  _272
REMARK  109  A    between atoms: _272  and  _273
REMARK  110  A    between atoms: _278  and  _280
REMARK  111  A    between atoms: _280  and  _281
REMARK  112  A    between atoms: _280  and  _283
REMARK  113  A    between atoms: _283  and  _284
REMARK  114  A    between atoms: _284  and  _285
REMARK  115  A    between atoms: _285  and  _286
REMARK  116  A    between atoms: _296  and  _297
REMARK  117  A    between atoms: _302  and  _304
REMARK  118  A    between atoms: _304  and  _305
REMARK  119  A    between atoms: _304  and  _307
REMARK  120  A    between atoms: _307  and  _308
REMARK  121  A    between atoms: _311  and  _313
REMARK  122  A    between atoms: _313  and  _314
REMARK  123  A    between atoms: _313  and  _316
REMARK  124  A    between atoms: _316  and  _317
REMARK  125  A    between atoms: _320  and  _322
REMARK  126  A    between atoms: _322  and  _323
REMARK  127  A    between atoms: _322  and  _325
REMARK  128  A    between atoms: _325  and  _326
REMARK  129  A    between atoms: _329  and  _331
REMARK  130  A    between atoms: _331  and  _332
REMARK  131  A    between atoms: _331  and  _334
REMARK  132  A    between atoms: _334  and  _335
REMARK  133  A    between atoms: _338  and  _340
REMARK  134  A    between atoms: _340  and  _341
REMARK  135  A    between atoms: _340  and  _343
REMARK  136  A    between atoms: _343  and  _344
REMARK  137  A    between atoms: _347  and  _349
REMARK  138  A    between atoms: _349  and  _350
REMARK  139  A    between atoms: _352  and  _354
REMARK  140  A    between atoms: _354  and  _355
REMARK  141  A    between atoms: _358  and  _360
REMARK  142  A    between atoms: _360  and  _361
REMARK  143  A    between atoms: _360  and  _363
REMARK  144  A    between atoms: _363  and  _364
REMARK  145  A    between atoms: _367  and  _369
REMARK  146  A    between atoms: _369  and  _370
REMARK  147  A    between atoms: _369  and  _372
REMARK  148  A    between atoms: _372  and  _373
REMARK  149  A    between atoms: _376  and  _378
REMARK  150  A    between atoms: _378  and  _379
REMARK  151  A    between atoms: _378  and  _381
REMARK  152  A    between atoms: _381  and  _382
REMARK  153  A    between atoms: _385  and  _387
REMARK  154  A    between atoms: _387  and  _388
REMARK  155  A    between atoms: _387  and  _390
REMARK  156  A    between atoms: _393  and  _395
REMARK  157  A    between atoms: _395  and  _396
REMARK  158  A    between atoms: _395  and  _398
REMARK  159  A    between atoms: _398  and  _399
REMARK  160  A    between atoms: _399  and  _400
REMARK  161  A    between atoms: _400  and  _401
REMARK  162  A    between atoms: _401  and  _402
REMARK  163  A    between atoms: _406  and  _408
REMARK  164  A    between atoms: _408  and  _409
REMARK  165  A    between atoms: _408  and  _411
REMARK  166  A    between atoms: _411  and  _412
REMARK  167  A    between atoms: _412  and  _413
REMARK  168  A    between atoms: _415  and  _417
REMARK  169  A    between atoms: _417  and  _418
REMARK  170  A    between atoms: _417  and  _420
REMARK  171  A    between atoms: _420  and  _421
REMARK  172  A    between atoms: _424  and  _426
REMARK  173  A    between atoms: _426  and  _427
REMARK  174  A    between atoms: _429  and  _431
REMARK  175  A    between atoms: _431  and  _432
REMARK  176  A    between atoms: _434  and  _436
REMARK  177  A    between atoms: _436  and  _437
REMARK  178  A    between atoms: _436  and  _439
REMARK  179  A    between atoms: _439  and  _440
REMARK  180  A    between atoms: _443  and  _445
REMARK  181  A    between atoms: _445  and  _446
REMARK  182  A    between atoms: _448  and  _450
REMARK  183  A    between atoms: _450  and  _451
REMARK  184  A    between atoms: _453  and  _455
REMARK  185  A    between atoms: _455  and  _456
REMARK  186  A    between atoms: _455  and  _458
REMARK  187  A    between atoms: _458  and  _459
REMARK  188  A    between atoms: _465  and  _467
REMARK  189  A    between atoms: _467  and  _468
REMARK  190  A    between atoms: _467  and  _470
REMARK  191  A    between atoms: _470  and  _471
REMARK  192  A    between atoms: _474  and  _476
REMARK  193  A    between atoms: _476  and  _477
REMARK  194  A    between atoms: _476  and  _479
REMARK  195  A    between atoms: _482  and  _484
REMARK  196  A    between atoms: _484  and  _485
REMARK  197  A    between atoms: _484  and  _487
REMARK  198  A    between atoms: _487  and  _488
REMARK  199  A    between atoms: _491  and  _493
REMARK  200  A    between atoms: _493  and  _494
REMARK  201  A    between atoms: _493  and  _496
REMARK  202  A    between atoms: _496  and  _497
REMARK  203  A    between atoms: _501  and  _502
REMARK  204  A    between atoms: _507  and  _509
REMARK  205  A    between atoms: _509  and  _510
REMARK  206  A    between atoms: _509  and  _512
REMARK  207  A    between atoms: _515  and  _517
REMARK  208  A    between atoms: _517  and  _518
REMARK  209  A    between atoms: _517  and  _520
REMARK  210  A    between atoms: _520  and  _521
REMARK  211  A    between atoms: _526  and  _528
REMARK  212  A    between atoms: _528  and  _529
REMARK  213  A    between atoms: _528  and  _531
REMARK  214  A    between atoms: _531  and  _532
REMARK  215  A    between atoms: _535  and  _537
REMARK  216  A    between atoms: _537  and  _538
REMARK  217  A    between atoms: _537  and  _540
REMARK  218  A    between atoms: _540  and  _541
REMARK  219  A    between atoms: _544  and  _546
REMARK  220  A    between atoms: _546  and  _547
REMARK  221  A    between atoms: _549  and  _551
REMARK  222  A    between atoms: _551  and  _552
REMARK  223  A    between atoms: _551  and  _554
REMARK  224  A    between atoms: _554  and  _555
REMARK  225  A    between atoms: _555  and  _556
REMARK  226  A    between atoms: _556  and  _557
REMARK  227  A    between atoms: _566  and  _568
REMARK  228  A    between atoms: _568  and  _569
REMARK  229  A    between atoms: _568  and  _571
REMARK  230  A    between atoms: _571  and  _572
REMARK                            x       y       z     vdW  Elec       q    Type
REMARK                         _______ _______ _______ _____ _____    ______ ____
ROOT
ATOM      1  O   HOH     1      23.976  21.168   8.370  0.00  0.00    +0.000 OA
ENDROOT
TORSDOF 0
REMARK  Name = ../refined-set-2016/3o9i/3o9i_pocket.pdb
REMARK  230 active torsions:
REMARK  status: ('A' for Active; 'I' for Inactive)
REMARK    1  A    between atoms: _1  and  _3
REMARK    2  A    between atoms: _3  and  _4
REMARK    3  A    between atoms: _3  and  _6
REMARK    4  A    between atoms: _6  and  _7
REMARK    5  A    between atoms: _7  and  _8
REMARK    6  A    between atoms: _8  and  _9
REMARK    7  A    between atoms: _18  and  _20
REMARK    8  A    between atoms: _20  and  _21
REMARK    9  A    between atoms: _20  and  _23
REMARK   10  A    between atoms: _23  and  _24
REMARK   11  A    between atoms: _27  and  _29
REMARK   12  A    between atoms: _29  and  _30
REMARK   13  A    between atoms: _29  and  _32
REMARK   14  A    between atoms: _32  and  _33
REMARK   15  A    between atoms: _36  and  _38
REMARK   16  A    between atoms: _38  and  _39
REMARK   17  A    between atoms: _38  and  _41
REMARK   18  A    between atoms: _41  and  _42
REMARK   19  A    between atoms: _45  and  _47
REMARK   20  A    between atoms: _47  and  _48
REMARK   21  A    between atoms: _47  and  _50
REMARK   22  A    between atoms: _50  and  _51
REMARK   23  A    between atoms: _54  and  _56
REMARK   24  A    between atoms: _56  and  _57
REMARK   25  A    between atoms: _56  and  _59
REMARK   26  A    between atoms: _59  and  _60
REMARK   27  A    between atoms: _63  and  _65
REMARK   28  A    between atoms: _65  and  _66
REMARK   29  A    between atoms: _68  and  _70
REMARK   30  A    between atoms: _70  and  _71
REMARK   31  A    between atoms: _74  and  _76
REMARK   32  A    between atoms: _76  and  _77
REMARK   33  A    between atoms: _76  and  _79
REMARK   34  A    between atoms: _79  and  _80
REMARK   35  A    between atoms: _83  and  _85
REMARK   36  A    between atoms: _85  and  _86
REMARK   37  A    between atoms: _85  and  _88
REMARK   38  A    between atoms: _88  and  _89
REMARK   39  A    between atoms: _92  and  _94
REMARK   40  A    between atoms: _94  and  _95
REMARK   41  A    between atoms: _94  and  _97
REMARK   42  A    between atoms: _97  and  _98
REMARK   43  A    between atoms: _101  and  _103
REMARK   44  A    between atoms: _103  and  _104
REMARK   45  A    between atoms: _103  and  _106
REMARK   46  A    between atoms: _109  and  _111
REMARK   47  A    between atoms: _111  and  _112
REMARK   48  A    between atoms: _111  and  _114
REMARK   49  A    between atoms: _114  and  _115
REMARK   50  A    between atoms: _118  and  _120
REMARK   51  A    between atoms: _120  and  _121
REMARK   52  A    between atoms: _123  and  _125
REMARK   53  A    between atoms: _125  and  _126
REMARK   54  A    between atoms: _128  and  _130
REMARK   55  A    between atoms: _130  and  _131
REMARK   56  A    between atoms: _130  and  _133
REMARK   57  A    between atoms: _133  and  _134
REMARK   58  A    between atoms: _137  and  _139
REMARK   59  A    between atoms: _139  and  _140
REMARK   60  A    between atoms: _142  and  _144
REMARK   61  A    between atoms: _144  and  _145
REMARK   62  A    between atoms: _147  and  _149
REMARK   63  A    between atoms: _149  and  _150
REMARK   64  A    between atoms: _149  and  _152
REMARK   65  A    between atoms: _152  and  _153
REMARK   66  A    between atoms: _159  and  _161
REMARK   67  A    between atoms: _161  and  _162
REMARK   68  A    between atoms: _161  and  _164
REMARK   69  A    between atoms: _164  and  _165
REMARK   70  A    between atoms: _168  and  _170
REMARK   71  A    between atoms: _170  and  _171
REMARK   72  A    between atoms: _170  and  _173
REMARK   73  A    between atoms: _176  and  _178
REMARK   74  A    between atoms: _178  and  _179
REMARK   75  A    between atoms: _178  and  _181
REMARK   76  A    between atoms: _181  and  _182
REMARK   77  A    between atoms: _186  and  _187
REMARK   78  A    between atoms: _192  and  _194
REMARK   79  A    between atoms: _194  and  _195
REMARK   80  A    between atoms: _194  and  _197
REMARK   81  A    between atoms: _197  and  _198
REMARK   82  A    between atoms: _202  and  _203
REMARK   83  A    between atoms: _208  and  _210
REMARK   84  A    between atoms: _210  and  _211
REMARK   85  A    between atoms: _210  and  _213
REMARK   86  A    between atoms: _216  and  _218
REMARK   87  A    between atoms: _218  and  _219
REMARK   88  A    between atoms: _218  and  _221
REMARK   89  A    between atoms: _221  and  _222
REMARK   90  A    between atoms: _227  and  _229
REMARK   91  A    between atoms: _229  and  _230
REMARK   92  A    between atoms: _229  and  _232
REMARK   93  A    between atoms: _232  and  _233
REMARK   94  A    between atoms: _236  and  _238
REMARK   95  A    between atoms: _238  and  _239
REMARK   96  A    between atoms: _238  and  _241
REMARK   97  A    between atoms: _241  and  _242
REMARK   98  A    between atoms: _245  and  _247
REMARK   99  A    between atoms: _247  and  _248
REMARK  100  A    between atoms: _250  and  _252
REMARK  101  A    between atoms: _252  and  _253
REMARK  102  A    between atoms: _252  and  _255
REMARK  103  A    between atoms: _255  and  _256
REMARK  104  A    between atoms: _256  and  _257
REMARK  105  A    between atoms: _257  and  _258
REMARK  106  A    between atoms: _267  and  _269
REMARK  107  A    between atoms: _269  and  _270
REMARK  108  A    between atoms: _269  and  _272
REMARK  109  A    between atoms: _272  and  _273
REMARK  110  A    between atoms: _278  and  _280
REMARK  111  A    between atoms: _280  and  _281
REMARK  112  A    between atoms: _280  and  _283
REMARK  113  A    between atoms: _283  and  _284
REMARK  114  A    between atoms: _284  and  _285
REMARK  115  A    between atoms: _285  and  _286
REMARK  116  A    between atoms: _296  and  _297
REMARK  117  A    between atoms: _302  and  _304
REMARK  118  A    between atoms: _304  and  _305
REMARK  119  A    between atoms: _304  and  _307
REMARK  120  A    between atoms: _307  and  _308
REMARK  121  A    between atoms: _311  and  _313
REMARK  122  A    between atoms: _313  and  _314
REMARK  123  A    between atoms: _313  and  _316
REMARK  124  A    between atoms: _316  and  _317
REMARK  125  A    between atoms: _320  and  _322
REMARK  126  A    between atoms: _322  and  _323
REMARK  127  A    between atoms: _322  and  _325
REMARK  128  A    between atoms: _325  and  _326
REMARK  129  A    between atoms: _329  and  _331
REMARK  130  A    between atoms: _331  and  _332
REMARK  131  A    between atoms: _331  and  _334
REMARK  132  A    between atoms: _334  and  _335
REMARK  133  A    between atoms: _338  and  _340
REMARK  134  A    between atoms: _340  and  _341
REMARK  135  A    between atoms: _340  and  _343
REMARK  136  A    between atoms: _343  and  _344
REMARK  137  A    between atoms: _347  and  _349
REMARK  138  A    between atoms: _349  and  _350
REMARK  139  A    between atoms: _352  and  _354
REMARK  140  A    between atoms: _354  and  _355
REMARK  141  A    between atoms: _358  and  _360
REMARK  142  A    between atoms: _360  and  _361
REMARK  143  A    between atoms: _360  and  _363
REMARK  144  A    between atoms: _363  and  _364
REMARK  145  A    between atoms: _367  and  _369
REMARK  146  A    between atoms: _369  and  _370
REMARK  147  A    between atoms: _369  and  _372
REMARK  148  A    between atoms: _372  and  _373
REMARK  149  A    between atoms: _376  and  _378
REMARK  150  A    between atoms: _378  and  _379
REMARK  151  A    between atoms: _378  and  _381
REMARK  152  A    between atoms: _381  and  _382
REMARK  153  A    between atoms: _385  and  _387
REMARK  154  A    between atoms: _387  and  _388
REMARK  155  A    between atoms: _387  and  _390
REMARK  156  A    between atoms: _393  and  _395
REMARK  157  A    between atoms: _395  and  _396
REMARK  158  A    between atoms: _395  and  _398
REMARK  159  A    between atoms: _398  and  _399
REMARK  160  A    between atoms: _399  and  _400
REMARK  161  A    between atoms: _400  and  _401
REMARK  162  A    between atoms: _401  and  _402
REMARK  163  A    between atoms: _406  and  _408
REMARK  164  A    between atoms: _408  and  _409
REMARK  165  A    between atoms: _408  and  _411
REMARK  166  A    between atoms: _411  and  _412
REMARK  167  A    between atoms: _412  and  _413
REMARK  168  A    between atoms: _415  and  _417
REMARK  169  A    between atoms: _417  and  _418
REMARK  170  A    between atoms: _417  and  _420
REMARK  171  A    between atoms: _420  and  _421
REMARK  172  A    between atoms: _424  and  _426
REMARK  173  A    between atoms: _426  and  _427
REMARK  174  A    between atoms: _429  and  _431
REMARK  175  A    between atoms: _431  and  _432
REMARK  176  A    between atoms: _434  and  _436
REMARK  177  A    between atoms: _436  and  _437
REMARK  178  A    between atoms: _436  and  _439
REMARK  179  A    between atoms: _439  and  _440
REMARK  180  A    between atoms: _443  and  _445
REMARK  181  A    between atoms: _445  and  _446
REMARK  182  A    between atoms: _448  and  _450
REMARK  183  A    between atoms: _450  and  _451
REMARK  184  A    between atoms: _453  and  _455
REMARK  185  A    between atoms: _455  and  _456
REMARK  186  A    between atoms: _455  and  _458
REMARK  187  A    between atoms: _458  and  _459
REMARK  188  A    between atoms: _465  and  _467
REMARK  189  A    between atoms: _467  and  _468
REMARK  190  A    between atoms: _467  and  _470
REMARK  191  A    between atoms: _470  and  _471
REMARK  192  A    between atoms: _474  and  _476
REMARK  193  A    between atoms: _476  and  _477
REMARK  194  A    between atoms: _476  and  _479
REMARK  195  A    between atoms: _482  and  _484
REMARK  196  A    between atoms: _484  and  _485
REMARK  197  A    between atoms: _484  and  _487
REMARK  198  A    between atoms: _487  and  _488
REMARK  199  A    between atoms: _491  and  _493
REMARK  200  A    between atoms: _493  and  _494
REMARK  201  A    between atoms: _493  and  _496
REMARK  202  A    between atoms: _496  and  _497
REMARK  203  A    between atoms: _501  and  _502
REMARK  204  A    between atoms: _507  and  _509
REMARK  205  A    between atoms: _509  and  _510
REMARK  206  A    between atoms: _509  and  _512
REMARK  207  A    between atoms: _515  and  _517
REMARK  208  A    between atoms: _517  and  _518
REMARK  209  A    between atoms: _517  and  _520
REMARK  210  A    between atoms: _520  and  _521
REMARK  211  A    between atoms: _526  and  _528
REMARK  212  A    between atoms: _528  and  _529
REMARK  213  A    between atoms: _528  and  _531
REMARK  214  A    between atoms: _531  and  _532
REMARK  215  A    between atoms: _535  and  _537
REMARK  216  A    between atoms: _537  and  _538
REMARK  217  A    between atoms: _537  and  _540
REMARK  218  A    between atoms: _540  and  _541
REMARK  219  A    between atoms: _544  and  _546
REMARK  220  A    between atoms: _546  and  _547
REMARK  221  A    between atoms: _549  and  _551
REMARK  222  A    between atoms: _551  and  _552
REMARK  223  A    between atoms: _551  and  _554
REMARK  224  A    between atoms: _554  and  _555
REMARK  225  A    between atoms: _555  and  _556
REMARK  226  A    between atoms: _556  and  _557
REMARK  227  A    between atoms: _566  and  _568
REMARK  228  A    between atoms: _568  and  _569
REMARK  229  A    between atoms: _568  and  _571
REMARK  230  A    between atoms: _571  and  _572
REMARK                            x       y       z     vdW  Elec       q    Type
REMARK                         _______ _______ _______ _____ _____    ______ ____
ROOT
ATOM      1  O   HOH     1      30.315  21.114  10.955  0.00  0.00    +0.000 OA
ENDROOT
TORSDOF 0
REMARK  Name = ../refined-set-2016/3o9i/3o9i_pocket.pdb
REMARK  230 active torsions:
REMARK  status: ('A' for Active; 'I' for Inactive)
REMARK    1  A    between atoms: _1  and  _3
REMARK    2  A    between atoms: _3  and  _4
REMARK    3  A    between atoms: _3  and  _6
REMARK    4  A    between atoms: _6  and  _7
REMARK    5  A    between atoms: _7  and  _8
REMARK    6  A    between atoms: _8  and  _9
REMARK    7  A    between atoms: _18  and  _20
REMARK    8  A    between atoms: _20  and  _21
REMARK    9  A    between atoms: _20  and  _23
REMARK   10  A    between atoms: _23  and  _24
REMARK   11  A    between atoms: _27  and  _29
REMARK   12  A    between atoms: _29  and  _30
REMARK   13  A    between atoms: _29  and  _32
REMARK   14  A    between atoms: _32  and  _33
REMARK   15  A    between atoms: _36  and  _38
REMARK   16  A    between atoms: _38  and  _39
REMARK   17  A    between atoms: _38  and  _41
REMARK   18  A    between atoms: _41  and  _42
REMARK   19  A    between atoms: _45  and  _47
REMARK   20  A    between atoms: _47  and  _48
REMARK   21  A    between atoms: _47  and  _50
REMARK   22  A    between atoms: _50  and  _51
REMARK   23  A    between atoms: _54  and  _56
REMARK   24  A    between atoms: _56  and  _57
REMARK   25  A    between atoms: _56  and  _59
REMARK   26  A    between atoms: _59  and  _60
REMARK   27  A    between atoms: _63  and  _65
REMARK   28  A    between atoms: _65  and  _66
REMARK   29  A    between atoms: _68  and  _70
REMARK   30  A    between atoms: _70  and  _71
REMARK   31  A    between atoms: _74  and  _76
REMARK   32  A    between atoms: _76  and  _77
REMARK   33  A    between atoms: _76  and  _79
REMARK   34  A    between atoms: _79  and  _80
REMARK   35  A    between atoms: _83  and  _85
REMARK   36  A    between atoms: _85  and  _86
REMARK   37  A    between atoms: _85  and  _88
REMARK   38  A    between atoms: _88  and  _89
REMARK   39  A    between atoms: _92  and  _94
REMARK   40  A    between atoms: _94  and  _95
REMARK   41  A    between atoms: _94  and  _97
REMARK   42  A    between atoms: _97  and  _98
REMARK   43  A    between atoms: _101  and  _103
REMARK   44  A    between atoms: _103  and  _104
REMARK   45  A    between atoms: _103  and  _106
REMARK   46  A    between atoms: _109  and  _111
REMARK   47  A    between atoms: _111  and  _112
REMARK   48  A    between atoms: _111  and  _114
REMARK   49  A    between atoms: _114  and  _115
REMARK   50  A    between atoms: _118  and  _120
REMARK   51  A    between atoms: _120  and  _121
REMARK   52  A    between atoms: _123  and  _125
REMARK   53  A    between atoms: _125  and  _126
REMARK   54  A    between atoms: _128  and  _130
REMARK   55  A    between atoms: _130  and  _131
REMARK   56  A    between atoms: _130  and  _133
REMARK   57  A    between atoms: _133  and  _134
REMARK   58  A    between atoms: _137  and  _139
REMARK   59  A    between atoms: _139  and  _140
REMARK   60  A    between atoms: _142  and  _144
REMARK   61  A    between atoms: _144  and  _145
REMARK   62  A    between atoms: _147  and  _149
REMARK   63  A    between atoms: _149  and  _150
REMARK   64  A    between atoms: _149  and  _152
REMARK   65  A    between atoms: _152  and  _153
REMARK   66  A    between atoms: _159  and  _161
REMARK   67  A    between atoms: _161  and  _162
REMARK   68  A    between atoms: _161  and  _164
REMARK   69  A    between atoms: _164  and  _165
REMARK   70  A    between atoms: _168  and  _170
REMARK   71  A    between atoms: _170  and  _171
REMARK   72  A    between atoms: _170  and  _173
REMARK   73  A    between atoms: _176  and  _178
REMARK   74  A    between atoms: _178  and  _179
REMARK   75  A    between atoms: _178  and  _181
REMARK   76  A    between atoms: _181  and  _182
REMARK   77  A    between atoms: _186  and  _187
REMARK   78  A    between atoms: _192  and  _194
REMARK   79  A    between atoms: _194  and  _195
REMARK   80  A    between atoms: _194  and  _197
REMARK   81  A    between atoms: _197  and  _198
REMARK   82  A    between atoms: _202  and  _203
REMARK   83  A    between atoms: _208  and  _210
REMARK   84  A    between atoms: _210  and  _211
REMARK   85  A    between atoms: _210  and  _213
REMARK   86  A    between atoms: _216  and  _218
REMARK   87  A    between atoms: _218  and  _219
REMARK   88  A    between atoms: _218  and  _221
REMARK   89  A    between atoms: _221  and  _222
REMARK   90  A    between atoms: _227  and  _229
REMARK   91  A    between atoms: _229  and  _230
REMARK   92  A    between atoms: _229  and  _232
REMARK   93  A    between atoms: _232  and  _233
REMARK   94  A    between atoms: _236  and  _238
REMARK   95  A    between atoms: _238  and  _239
REMARK   96  A    between atoms: _238  and  _241
REMARK   97  A    between atoms: _241  and  _242
REMARK   98  A    between atoms: _245  and  _247
REMARK   99  A    between atoms: _247  and  _248
REMARK  100  A    between atoms: _250  and  _252
REMARK  101  A    between atoms: _252  and  _253
REMARK  102  A    between atoms: _252  and  _255
REMARK  103  A    between atoms: _255  and  _256
REMARK  104  A    between atoms: _256  and  _257
REMARK  105  A    between atoms: _257  and  _258
REMARK  106  A    between atoms: _267  and  _269
REMARK  107  A    between atoms: _269  and  _270
REMARK  108  A    between atoms: _269  and  _272
REMARK  109  A    between atoms: _272  and  _273
REMARK  110  A    between atoms: _278  and  _280
REMARK  111  A    between atoms: _280  and  _281
REMARK  112  A    between atoms: _280  and  _283
REMARK  113  A    between atoms: _283  and  _284
REMARK  114  A    between atoms: _284  and  _285
REMARK  115  A    between atoms: _285  and  _286
REMARK  116  A    between atoms: _296  and  _297
REMARK  117  A    between atoms: _302  and  _304
REMARK  118  A    between atoms: _304  and  _305
REMARK  119  A    between atoms: _304  and  _307
REMARK  120  A    between atoms: _307  and  _308
REMARK  121  A    between atoms: _311  and  _313
REMARK  122  A    between atoms: _313  and  _314
REMARK  123  A    between atoms: _313  and  _316
REMARK  124  A    between atoms: _316  and  _317
REMARK  125  A    between atoms: _320  and  _322
REMARK  126  A    between atoms: _322  and  _323
REMARK  127  A    between atoms: _322  and  _325
REMARK  128  A    between atoms: _325  and  _326
REMARK  129  A    between atoms: _329  and  _331
REMARK  130  A    between atoms: _331  and  _332
REMARK  131  A    between atoms: _331  and  _334
REMARK  132  A    between atoms: _334  and  _335
REMARK  133  A    between atoms: _338  and  _340
REMARK  134  A    between atoms: _340  and  _341
REMARK  135  A    between atoms: _340  and  _343
REMARK  136  A    between atoms: _343  and  _344
REMARK  137  A    between atoms: _347  and  _349
REMARK  138  A    between atoms: _349  and  _350
REMARK  139  A    between atoms: _352  and  _354
REMARK  140  A    between atoms: _354  and  _355
REMARK  141  A    between atoms: _358  and  _360
REMARK  142  A    between atoms: _360  and  _361
REMARK  143  A    between atoms: _360  and  _363
REMARK  144  A    between atoms: _363  and  _364
REMARK  145  A    between atoms: _367  and  _369
REMARK  146  A    between atoms: _369  and  _370
REMARK  147  A    between atoms: _369  and  _372
REMARK  148  A    between atoms: _372  and  _373
REMARK  149  A    between atoms: _376  and  _378
REMARK  150  A    between atoms: _378  and  _379
REMARK  151  A    between atoms: _378  and  _381
REMARK  152  A    between atoms: _381  and  _382
REMARK  153  A    between atoms: _385  and  _387
REMARK  154  A    between atoms: _387  and  _388
REMARK  155  A    between atoms: _387  and  _390
REMARK  156  A    between atoms: _393  and  _395
REMARK  157  A    between atoms: _395  and  _396
REMARK  158  A    between atoms: _395  and  _398
REMARK  159  A    between atoms: _398  and  _399
REMARK  160  A    between atoms: _399  and  _400
REMARK  161  A    between atoms: _400  and  _401
REMARK  162  A    between atoms: _401  and  _402
REMARK  163  A    between atoms: _406  and  _408
REMARK  164  A    between atoms: _408  and  _409
REMARK  165  A    between atoms: _408  and  _411
REMARK  166  A    between atoms: _411  and  _412
REMARK  167  A    between atoms: _412  and  _413
REMARK  168  A    between atoms: _415  and  _417
REMARK  169  A    between atoms: _417  and  _418
REMARK  170  A    between atoms: _417  and  _420
REMARK  171  A    between atoms: _420  and  _421
REMARK  172  A    between atoms: _424  and  _426
REMARK  173  A    between atoms: _426  and  _427
REMARK  174  A    between atoms: _429  and  _431
REMARK  175  A    between atoms: _431  and  _432
REMARK  176  A    between atoms: _434  and  _436
REMARK  177  A    between atoms: _436  and  _437
REMARK  178  A    between atoms: _436  and  _439
REMARK  179  A    between atoms: _439  and  _440
REMARK  180  A    between atoms: _443  and  _445
REMARK  181  A    between atoms: _445  and  _446
REMARK  182  A    between atoms: _448  and  _450
REMARK  183  A    between atoms: _450  and  _451
REMARK  184  A    between atoms: _453  and  _455
REMARK  185  A    between atoms: _455  and  _456
REMARK  186  A    between atoms: _455  and  _458
REMARK  187  A    between atoms: _458  and  _459
REMARK  188  A    between atoms: _465  and  _467
REMARK  189  A    between atoms: _467  and  _468
REMARK  190  A    between atoms: _467  and  _470
REMARK  191  A    between atoms: _470  and  _471
REMARK  192  A    between atoms: _474  and  _476
REMARK  193  A    between atoms: _476  and  _477
REMARK  194  A    between atoms: _476  and  _479
REMARK  195  A    between atoms: _482  and  _484
REMARK  196  A    between atoms: _484  and  _485
REMARK  197  A    between atoms: _484  and  _487
REMARK  198  A    between atoms: _487  and  _488
REMARK  199  A    between atoms: _491  and  _493
REMARK  200  A    between atoms: _493  and  _494
REMARK  201  A    between atoms: _493  and  _496
REMARK  202  A    between atoms: _496  and  _497
REMARK  203  A    between atoms: _501  and  _502
REMARK  204  A    between atoms: _507  and  _509
REMARK  205  A    between atoms: _509  and  _510
REMARK  206  A    between atoms: _509  and  _512
REMARK  207  A    between atoms: _515  and  _517
REMARK  208  A    between atoms: _517  and  _518
REMARK  209  A    between atoms: _517  and  _520
REMARK  210  A    between atoms: _520  and  _521
REMARK  211  A    between atoms: _526  and  _528
REMARK  212  A    between atoms: _528  and  _529
REMARK  213  A    between atoms: _528  and  _531
REMARK  214  A    between atoms: _531  and  _532
REMARK  215  A    between atoms: _535  and  _537
REMARK  216  A    between atoms: _537  and  _538
REMARK  217  A    between atoms: _537  and  _540
REMARK  218  A    between atoms: _540  and  _541
REMARK  219  A    between atoms: _544  and  _546
REMARK  220  A    between atoms: _546  and  _547
REMARK  221  A    between atoms: _549  and  _551
REMARK  222  A    between atoms: _551  and  _552
REMARK  223  A    between atoms: _551  and  _554
REMARK  224  A    between atoms: _554  and  _555
REMARK  225  A    between atoms: _555  and  _556
REMARK  226  A    between atoms: _556  and  _557
REMARK  227  A    between atoms: _566  and  _568
REMARK  228  A    between atoms: _568  and  _569
REMARK  229  A    between atoms: _568  and  _571
REMARK  230  A    between atoms: _571  and  _572
REMARK                            x       y       z     vdW  Elec       q    Type
REMARK                         _______ _______ _______ _____ _____    ______ ____
ROOT
ATOM      1  O   HOH     1      26.440  19.798   9.363  0.00  0.00    +0.000 OA
ENDROOT
TORSDOF 0
REMARK  Name = ../refined-set-2016/3o9i/3o9i_pocket.pdb
REMARK  230 active torsions:
REMARK  status: ('A' for Active; 'I' for Inactive)
REMARK    1  A    between atoms: _1  and  _3
REMARK    2  A    between atoms: _3  and  _4
REMARK    3  A    between atoms: _3  and  _6
REMARK    4  A    between atoms: _6  and  _7
REMARK    5  A    between atoms: _7  and  _8
REMARK    6  A    between atoms: _8  and  _9
REMARK    7  A    between atoms: _18  and  _20
REMARK    8  A    between atoms: _20  and  _21
REMARK    9  A    between atoms: _20  and  _23
REMARK   10  A    between atoms: _23  and  _24
REMARK   11  A    between atoms: _27  and  _29
REMARK   12  A    between atoms: _29  and  _30
REMARK   13  A    between atoms: _29  and  _32
REMARK   14  A    between atoms: _32  and  _33
REMARK   15  A    between atoms: _36  and  _38
REMARK   16  A    between atoms: _38  and  _39
REMARK   17  A    between atoms: _38  and  _41
REMARK   18  A    between atoms: _41  and  _42
REMARK   19  A    between atoms: _45  and  _47
REMARK   20  A    between atoms: _47  and  _48
REMARK   21  A    between atoms: _47  and  _50
REMARK   22  A    between atoms: _50  and  _51
REMARK   23  A    between atoms: _54  and  _56
REMARK   24  A    between atoms: _56  and  _57
REMARK   25  A    between atoms: _56  and  _59
REMARK   26  A    between atoms: _59  and  _60
REMARK   27  A    between atoms: _63  and  _65
REMARK   28  A    between atoms: _65  and  _66
REMARK   29  A    between atoms: _68  and  _70
REMARK   30  A    between atoms: _70  and  _71
REMARK   31  A    between atoms: _74  and  _76
REMARK   32  A    between atoms: _76  and  _77
REMARK   33  A    between atoms: _76  and  _79
REMARK   34  A    between atoms: _79  and  _80
REMARK   35  A    between atoms: _83  and  _85
REMARK   36  A    between atoms: _85  and  _86
REMARK   37  A    between atoms: _85  and  _88
REMARK   38  A    between atoms: _88  and  _89
REMARK   39  A    between atoms: _92  and  _94
REMARK   40  A    between atoms: _94  and  _95
REMARK   41  A    between atoms: _94  and  _97
REMARK   42  A    between atoms: _97  and  _98
REMARK   43  A    between atoms: _101  and  _103
REMARK   44  A    between atoms: _103  and  _104
REMARK   45  A    between atoms: _103  and  _106
REMARK   46  A    between atoms: _109  and  _111
REMARK   47  A    between atoms: _111  and  _112
REMARK   48  A    between atoms: _111  and  _114
REMARK   49  A    between atoms: _114  and  _115
REMARK   50  A    between atoms: _118  and  _120
REMARK   51  A    between atoms: _120  and  _121
REMARK   52  A    between atoms: _123  and  _125
REMARK   53  A    between atoms: _125  and  _126
REMARK   54  A    between atoms: _128  and  _130
REMARK   55  A    between atoms: _130  and  _131
REMARK   56  A    between atoms: _130  and  _133
REMARK   57  A    between atoms: _133  and  _134
REMARK   58  A    between atoms: _137  and  _139
REMARK   59  A    between atoms: _139  and  _140
REMARK   60  A    between atoms: _142  and  _144
REMARK   61  A    between atoms: _144  and  _145
REMARK   62  A    between atoms: _147  and  _149
REMARK   63  A    between atoms: _149  and  _150
REMARK   64  A    between atoms: _149  and  _152
REMARK   65  A    between atoms: _152  and  _153
REMARK   66  A    between atoms: _159  and  _161
REMARK   67  A    between atoms: _161  and  _162
REMARK   68  A    between atoms: _161  and  _164
REMARK   69  A    between atoms: _164  and  _165
REMARK   70  A    between atoms: _168  and  _170
REMARK   71  A    between atoms: _170  and  _171
REMARK   72  A    between atoms: _170  and  _173
REMARK   73  A    between atoms: _176  and  _178
REMARK   74  A    between atoms: _178  and  _179
REMARK   75  A    between atoms: _178  and  _181
REMARK   76  A    between atoms: _181  and  _182
REMARK   77  A    between atoms: _186  and  _187
REMARK   78  A    between atoms: _192  and  _194
REMARK   79  A    between atoms: _194  and  _195
REMARK   80  A    between atoms: _194  and  _197
REMARK   81  A    between atoms: _197  and  _198
REMARK   82  A    between atoms: _202  and  _203
REMARK   83  A    between atoms: _208  and  _210
REMARK   84  A    between atoms: _210  and  _211
REMARK   85  A    between atoms: _210  and  _213
REMARK   86  A    between atoms: _216  and  _218
REMARK   87  A    between atoms: _218  and  _219
REMARK   88  A    between atoms: _218  and  _221
REMARK   89  A    between atoms: _221  and  _222
REMARK   90  A    between atoms: _227  and  _229
REMARK   91  A    between atoms: _229  and  _230
REMARK   92  A    between atoms: _229  and  _232
REMARK   93  A    between atoms: _232  and  _233
REMARK   94  A    between atoms: _236  and  _238
REMARK   95  A    between atoms: _238  and  _239
REMARK   96  A    between atoms: _238  and  _241
REMARK   97  A    between atoms: _241  and  _242
REMARK   98  A    between atoms: _245  and  _247
REMARK   99  A    between atoms: _247  and  _248
REMARK  100  A    between atoms: _250  and  _252
REMARK  101  A    between atoms: _252  and  _253
REMARK  102  A    between atoms: _252  and  _255
REMARK  103  A    between atoms: _255  and  _256
REMARK  104  A    between atoms: _256  and  _257
REMARK  105  A    between atoms: _257  and  _258
REMARK  106  A    between atoms: _267  and  _269
REMARK  107  A    between atoms: _269  and  _270
REMARK  108  A    between atoms: _269  and  _272
REMARK  109  A    between atoms: _272  and  _273
REMARK  110  A    between atoms: _278  and  _280
REMARK  111  A    between atoms: _280  and  _281
REMARK  112  A    between atoms: _280  and  _283
REMARK  113  A    between atoms: _283  and  _284
REMARK  114  A    between atoms: _284  and  _285
REMARK  115  A    between atoms: _285  and  _286
REMARK  116  A    between atoms: _296  and  _297
REMARK  117  A    between atoms: _302  and  _304
REMARK  118  A    between atoms: _304  and  _305
REMARK  119  A    between atoms: _304  and  _307
REMARK  120  A    between atoms: _307  and  _308
REMARK  121  A    between atoms: _311  and  _313
REMARK  122  A    between atoms: _313  and  _314
REMARK  123  A    between atoms: _313  and  _316
REMARK  124  A    between atoms: _316  and  _317
REMARK  125  A    between atoms: _320  and  _322
REMARK  126  A    between atoms: _322  and  _323
REMARK  127  A    between atoms: _322  and  _325
REMARK  128  A    between atoms: _325  and  _326
REMARK  129  A    between atoms: _329  and  _331
REMARK  130  A    between atoms: _331  and  _332
REMARK  131  A    between atoms: _331  and  _334
REMARK  132  A    between atoms: _334  and  _335
REMARK  133  A    between atoms: _338  and  _340
REMARK  134  A    between atoms: _340  and  _341
REMARK  135  A    between atoms: _340  and  _343
REMARK  136  A    between atoms: _343  and  _344
REMARK  137  A    between atoms: _347  and  _349
REMARK  138  A    between atoms: _349  and  _350
REMARK  139  A    between atoms: _352  and  _354
REMARK  140  A    between atoms: _354  and  _355
REMARK  141  A    between atoms: _358  and  _360
REMARK  142  A    between atoms: _360  and  _361
REMARK  143  A    between atoms: _360  and  _363
REMARK  144  A    between atoms: _363  and  _364
REMARK  145  A    between atoms: _367  and  _369
REMARK  146  A    between atoms: _369  and  _370
REMARK  147  A    between atoms: _369  and  _372
REMARK  148  A    between atoms: _372  and  _373
REMARK  149  A    between atoms: _376  and  _378
REMARK  150  A    between atoms: _378  and  _379
REMARK  151  A    between atoms: _378  and  _381
REMARK  152  A    between atoms: _381  and  _382
REMARK  153  A    between atoms: _385  and  _387
REMARK  154  A    between atoms: _387  and  _388
REMARK  155  A    between atoms: _387  and  _390
REMARK  156  A    between atoms: _393  and  _395
REMARK  157  A    between atoms: _395  and  _396
REMARK  158  A    between atoms: _395  and  _398
REMARK  159  A    between atoms: _398  and  _399
REMARK  160  A    between atoms: _399  and  _400
REMARK  161  A    between atoms: _400  and  _401
REMARK  162  A    between atoms: _401  and  _402
REMARK  163  A    between atoms: _406  and  _408
REMARK  164  A    between atoms: _408  and  _409
REMARK  165  A    between atoms: _408  and  _411
REMARK  166  A    between atoms: _411  and  _412
REMARK  167  A    between atoms: _412  and  _413
REMARK  168  A    between atoms: _415  and  _417
REMARK  169  A    between atoms: _417  and  _418
REMARK  170  A    between atoms: _417  and  _420
REMARK  171  A    between atoms: _420  and  _421
REMARK  172  A    between atoms: _424  and  _426
REMARK  173  A    between atoms: _426  and  _427
REMARK  174  A    between atoms: _429  and  _431
REMARK  175  A    between atoms: _431  and  _432
REMARK  176  A    between atoms: _434  and  _436
REMARK  177  A    between atoms: _436  and  _437
REMARK  178  A    between atoms: _436  and  _439
REMARK  179  A    between atoms: _439  and  _440
REMARK  180  A    between atoms: _443  and  _445
REMARK  181  A    between atoms: _445  and  _446
REMARK  182  A    between atoms: _448  and  _450
REMARK  183  A    between atoms: _450  and  _451
REMARK  184  A    between atoms: _453  and  _455
REMARK  185  A    between atoms: _455  and  _456
REMARK  186  A    between atoms: _455  and  _458
REMARK  187  A    between atoms: _458  and  _459
REMARK  188  A    between atoms: _465  and  _467
REMARK  189  A    between atoms: _467  and  _468
REMARK  190  A    between atoms: _467  and  _470
REMARK  191  A    between atoms: _470  and  _471
REMARK  192  A    between atoms: _474  and  _476
REMARK  193  A    between atoms: _476  and  _477
REMARK  194  A    between atoms: _476  and  _479
REMARK  195  A    between atoms: _482  and  _484
REMARK  196  A    between atoms: _484  and  _485
REMARK  197  A    between atoms: _484  and  _487
REMARK  198  A    between atoms: _487  and  _488
REMARK  199  A    between atoms: _491  and  _493
REMARK  200  A    between atoms: _493  and  _494
REMARK  201  A    between atoms: _493  and  _496
REMARK  202  A    between atoms: _496  and  _497
REMARK  203  A    between atoms: _501  and  _502
REMARK  204  A    between atoms: _507  and  _509
REMARK  205  A    between atoms: _509  and  _510
REMARK  206  A    between atoms: _509  and  _512
REMARK  207  A    between atoms: _515  and  _517
REMARK  208  A    between atoms: _517  and  _518
REMARK  209  A    between atoms: _517  and  _520
REMARK  210  A    between atoms: _520  and  _521
REMARK  211  A    between atoms: _526  and  _528
REMARK  212  A    between atoms: _528  and  _529
REMARK  213  A    between atoms: _528  and  _531
REMARK  214  A    between atoms: _531  and  _532
REMARK  215  A    between atoms: _535  and  _537
REMARK  216  A    between atoms: _537  and  _538
REMARK  217  A    between atoms: _537  and  _540
REMARK  218  A    between atoms: _540  and  _541
REMARK  219  A    between atoms: _544  and  _546
REMARK  220  A    between atoms: _546  and  _547
REMARK  221  A    between atoms: _549  and  _551
REMARK  222  A    between atoms: _551  and  _552
REMARK  223  A    between atoms: _551  and  _554
REMARK  224  A    between atoms: _554  and  _555
REMARK  225  A    between atoms: _555  and  _556
REMARK  226  A    between atoms: _556  and  _557
REMARK  227  A    between atoms: _566  and  _568
REMARK  228  A    between atoms: _568  and  _569
REMARK  229  A    between atoms: _568  and  _571
REMARK  230  A    between atoms: _571  and  _572
REMARK                            x       y       z     vdW  Elec       q    Type
REMARK                         _______ _______ _______ _____ _____    ______ ____
ROOT
ATOM      1  O   HOH     1      15.056  33.170   5.198  0.00  0.00    +0.000 OA
ENDROOT
TORSDOF 0
REMARK  Name = ../refined-set-2016/3o9i/3o9i_pocket.pdb
REMARK  230 active torsions:
REMARK  status: ('A' for Active; 'I' for Inactive)
REMARK    1  A    between atoms: _1  and  _3
REMARK    2  A    between atoms: _3  and  _4
REMARK    3  A    between atoms: _3  and  _6
REMARK    4  A    between atoms: _6  and  _7
REMARK    5  A    between atoms: _7  and  _8
REMARK    6  A    between atoms: _8  and  _9
REMARK    7  A    between atoms: _18  and  _20
REMARK    8  A    between atoms: _20  and  _21
REMARK    9  A    between atoms: _20  and  _23
REMARK   10  A    between atoms: _23  and  _24
REMARK   11  A    between atoms: _27  and  _29
REMARK   12  A    between atoms: _29  and  _30
REMARK   13  A    between atoms: _29  and  _32
REMARK   14  A    between atoms: _32  and  _33
REMARK   15  A    between atoms: _36  and  _38
REMARK   16  A    between atoms: _38  and  _39
REMARK   17  A    between atoms: _38  and  _41
REMARK   18  A    between atoms: _41  and  _42
REMARK   19  A    between atoms: _45  and  _47
REMARK   20  A    between atoms: _47  and  _48
REMARK   21  A    between atoms: _47  and  _50
REMARK   22  A    between atoms: _50  and  _51
REMARK   23  A    between atoms: _54  and  _56
REMARK   24  A    between atoms: _56  and  _57
REMARK   25  A    between atoms: _56  and  _59
REMARK   26  A    between atoms: _59  and  _60
REMARK   27  A    between atoms: _63  and  _65
REMARK   28  A    between atoms: _65  and  _66
REMARK   29  A    between atoms: _68  and  _70
REMARK   30  A    between atoms: _70  and  _71
REMARK   31  A    between atoms: _74  and  _76
REMARK   32  A    between atoms: _76  and  _77
REMARK   33  A    between atoms: _76  and  _79
REMARK   34  A    between atoms: _79  and  _80
REMARK   35  A    between atoms: _83  and  _85
REMARK   36  A    between atoms: _85  and  _86
REMARK   37  A    between atoms: _85  and  _88
REMARK   38  A    between atoms: _88  and  _89
REMARK   39  A    between atoms: _92  and  _94
REMARK   40  A    between atoms: _94  and  _95
REMARK   41  A    between atoms: _94  and  _97
REMARK   42  A    between atoms: _97  and  _98
REMARK   43  A    between atoms: _101  and  _103
REMARK   44  A    between atoms: _103  and  _104
REMARK   45  A    between atoms: _103  and  _106
REMARK   46  A    between atoms: _109  and  _111
REMARK   47  A    between atoms: _111  and  _112
REMARK   48  A    between atoms: _111  and  _114
REMARK   49  A    between atoms: _114  and  _115
REMARK   50  A    between atoms: _118  and  _120
REMARK   51  A    between atoms: _120  and  _121
REMARK   52  A    between atoms: _123  and  _125
REMARK   53  A    between atoms: _125  and  _126
REMARK   54  A    between atoms: _128  and  _130
REMARK   55  A    between atoms: _130  and  _131
REMARK   56  A    between atoms: _130  and  _133
REMARK   57  A    between atoms: _133  and  _134
REMARK   58  A    between atoms: _137  and  _139
REMARK   59  A    between atoms: _139  and  _140
REMARK   60  A    between atoms: _142  and  _144
REMARK   61  A    between atoms: _144  and  _145
REMARK   62  A    between atoms: _147  and  _149
REMARK   63  A    between atoms: _149  and  _150
REMARK   64  A    between atoms: _149  and  _152
REMARK   65  A    between atoms: _152  and  _153
REMARK   66  A    between atoms: _159  and  _161
REMARK   67  A    between atoms: _161  and  _162
REMARK   68  A    between atoms: _161  and  _164
REMARK   69  A    between atoms: _164  and  _165
REMARK   70  A    between atoms: _168  and  _170
REMARK   71  A    between atoms: _170  and  _171
REMARK   72  A    between atoms: _170  and  _173
REMARK   73  A    between atoms: _176  and  _178
REMARK   74  A    between atoms: _178  and  _179
REMARK   75  A    between atoms: _178  and  _181
REMARK   76  A    between atoms: _181  and  _182
REMARK   77  A    between atoms: _186  and  _187
REMARK   78  A    between atoms: _192  and  _194
REMARK   79  A    between atoms: _194  and  _195
REMARK   80  A    between atoms: _194  and  _197
REMARK   81  A    between atoms: _197  and  _198
REMARK   82  A    between atoms: _202  and  _203
REMARK   83  A    between atoms: _208  and  _210
REMARK   84  A    between atoms: _210  and  _211
REMARK   85  A    between atoms: _210  and  _213
REMARK   86  A    between atoms: _216  and  _218
REMARK   87  A    between atoms: _218  and  _219
REMARK   88  A    between atoms: _218  and  _221
REMARK   89  A    between atoms: _221  and  _222
REMARK   90  A    between atoms: _227  and  _229
REMARK   91  A    between atoms: _229  and  _230
REMARK   92  A    between atoms: _229  and  _232
REMARK   93  A    between atoms: _232  and  _233
REMARK   94  A    between atoms: _236  and  _238
REMARK   95  A    between atoms: _238  and  _239
REMARK   96  A    between atoms: _238  and  _241
REMARK   97  A    between atoms: _241  and  _242
REMARK   98  A    between atoms: _245  and  _247
REMARK   99  A    between atoms: _247  and  _248
REMARK  100  A    between atoms: _250  and  _252
REMARK  101  A    between atoms: _252  and  _253
REMARK  102  A    between atoms: _252  and  _255
REMARK  103  A    between atoms: _255  and  _256
REMARK  104  A    between atoms: _256  and  _257
REMARK  105  A    between atoms: _257  and  _258
REMARK  106  A    between atoms: _267  and  _269
REMARK  107  A    between atoms: _269  and  _270
REMARK  108  A    between atoms: _269  and  _272
REMARK  109  A    between atoms: _272  and  _273
REMARK  110  A    between atoms: _278  and  _280
REMARK  111  A    between atoms: _280  and  _281
REMARK  112  A    between atoms: _280  and  _283
REMARK  113  A    between atoms: _283  and  _284
REMARK  114  A    between atoms: _284  and  _285
REMARK  115  A    between atoms: _285  and  _286
REMARK  116  A    between atoms: _296  and  _297
REMARK  117  A    between atoms: _302  and  _304
REMARK  118  A    between atoms: _304  and  _305
REMARK  119  A    between atoms: _304  and  _307
REMARK  120  A    between atoms: _307  and  _308
REMARK  121  A    between atoms: _311  and  _313
REMARK  122  A    between atoms: _313  and  _314
REMARK  123  A    between atoms: _313  and  _316
REMARK  124  A    between atoms: _316  and  _317
REMARK  125  A    between atoms: _320  and  _322
REMARK  126  A    between atoms: _322  and  _323
REMARK  127  A    between atoms: _322  and  _325
REMARK  128  A    between atoms: _325  and  _326
REMARK  129  A    between atoms: _329  and  _331
REMARK  130  A    between atoms: _331  and  _332
REMARK  131  A    between atoms: _331  and  _334
REMARK  132  A    between atoms: _334  and  _335
REMARK  133  A    between atoms: _338  and  _340
REMARK  134  A    between atoms: _340  and  _341
REMARK  135  A    between atoms: _340  and  _343
REMARK  136  A    between atoms: _343  and  _344
REMARK  137  A    between atoms: _347  and  _349
REMARK  138  A    between atoms: _349  and  _350
REMARK  139  A    between atoms: _352  and  _354
REMARK  140  A    between atoms: _354  and  _355
REMARK  141  A    between atoms: _358  and  _360
REMARK  142  A    between atoms: _360  and  _361
REMARK  143  A    between atoms: _360  and  _363
REMARK  144  A    between atoms: _363  and  _364
REMARK  145  A    between atoms: _367  and  _369
REMARK  146  A    between atoms: _369  and  _370
REMARK  147  A    between atoms: _369  and  _372
REMARK  148  A    between atoms: _372  and  _373
REMARK  149  A    between atoms: _376  and  _378
REMARK  150  A    between atoms: _378  and  _379
REMARK  151  A    between atoms: _378  and  _381
REMARK  152  A    between atoms: _381  and  _382
REMARK  153  A    between atoms: _385  and  _387
REMARK  154  A    between atoms: _387  and  _388
REMARK  155  A    between atoms: _387  and  _390
REMARK  156  A    between atoms: _393  and  _395
REMARK  157  A    between atoms: _395  and  _396
REMARK  158  A    between atoms: _395  and  _398
REMARK  159  A    between atoms: _398  and  _399
REMARK  160  A    between atoms: _399  and  _400
REMARK  161  A    between atoms: _400  and  _401
REMARK  162  A    between atoms: _401  and  _402
REMARK  163  A    between atoms: _406  and  _408
REMARK  164  A    between atoms: _408  and  _409
REMARK  165  A    between atoms: _408  and  _411
REMARK  166  A    between atoms: _411  and  _412
REMARK  167  A    between atoms: _412  and  _413
REMARK  168  A    between atoms: _415  and  _417
REMARK  169  A    between atoms: _417  and  _418
REMARK  170  A    between atoms: _417  and  _420
REMARK  171  A    between atoms: _420  and  _421
REMARK  172  A    between atoms: _424  and  _426
REMARK  173  A    between atoms: _426  and  _427
REMARK  174  A    between atoms: _429  and  _431
REMARK  175  A    between atoms: _431  and  _432
REMARK  176  A    between atoms: _434  and  _436
REMARK  177  A    between atoms: _436  and  _437
REMARK  178  A    between atoms: _436  and  _439
REMARK  179  A    between atoms: _439  and  _440
REMARK  180  A    between atoms: _443  and  _445
REMARK  181  A    between atoms: _445  and  _446
REMARK  182  A    between atoms: _448  and  _450
REMARK  183  A    between atoms: _450  and  _451
REMARK  184  A    between atoms: _453  and  _455
REMARK  185  A    between atoms: _455  and  _456
REMARK  186  A    between atoms: _455  and  _458
REMARK  187  A    between atoms: _458  and  _459
REMARK  188  A    between atoms: _465  and  _467
REMARK  189  A    between atoms: _467  and  _468
REMARK  190  A    between atoms: _467  and  _470
REMARK  191  A    between atoms: _470  and  _471
REMARK  192  A    between atoms: _474  and  _476
REMARK  193  A    between atoms: _476  and  _477
REMARK  194  A    between atoms: _476  and  _479
REMARK  195  A    between atoms: _482  and  _484
REMARK  196  A    between atoms: _484  and  _485
REMARK  197  A    between atoms: _484  and  _487
REMARK  198  A    between atoms: _487  and  _488
REMARK  199  A    between atoms: _491  and  _493
REMARK  200  A    between atoms: _493  and  _494
REMARK  201  A    between atoms: _493  and  _496
REMARK  202  A    between atoms: _496  and  _497
REMARK  203  A    between atoms: _501  and  _502
REMARK  204  A    between atoms: _507  and  _509
REMARK  205  A    between atoms: _509  and  _510
REMARK  206  A    between atoms: _509  and  _512
REMARK  207  A    between atoms: _515  and  _517
REMARK  208  A    between atoms: _517  and  _518
REMARK  209  A    between atoms: _517  and  _520
REMARK  210  A    between atoms: _520  and  _521
REMARK  211  A    between atoms: _526  and  _528
REMARK  212  A    between atoms: _528  and  _529
REMARK  213  A    between atoms: _528  and  _531
REMARK  214  A    between atoms: _531  and  _532
REMARK  215  A    between atoms: _535  and  _537
REMARK  216  A    between atoms: _537  and  _538
REMARK  217  A    between atoms: _537  and  _540
REMARK  218  A    between atoms: _540  and  _541
REMARK  219  A    between atoms: _544  and  _546
REMARK  220  A    between atoms: _546  and  _547
REMARK  221  A    between atoms: _549  and  _551
REMARK  222  A    between atoms: _551  and  _552
REMARK  223  A    between atoms: _551  and  _554
REMARK  224  A    between atoms: _554  and  _555
REMARK  225  A    between atoms: _555  and  _556
REMARK  226  A    between atoms: _556  and  _557
REMARK  227  A    between atoms: _566  and  _568
REMARK  228  A    between atoms: _568  and  _569
REMARK  229  A    between atoms: _568  and  _571
REMARK  230  A    between atoms: _571  and  _572
REMARK                            x       y       z     vdW  Elec       q    Type
REMARK                         _______ _______ _______ _____ _____    ______ ____
ROOT
ATOM      1  O   HOH     1      25.989  39.091  20.326  0.00  0.00    +0.000 OA
ENDROOT
TORSDOF 0
REMARK  Name = ../refined-set-2016/3o9i/3o9i_pocket.pdb
REMARK  230 active torsions:
REMARK  status: ('A' for Active; 'I' for Inactive)
REMARK    1  A    between atoms: _1  and  _3
REMARK    2  A    between atoms: _3  and  _4
REMARK    3  A    between atoms: _3  and  _6
REMARK    4  A    between atoms: _6  and  _7
REMARK    5  A    between atoms: _7  and  _8
REMARK    6  A    between atoms: _8  and  _9
REMARK    7  A    between atoms: _18  and  _20
REMARK    8  A    between atoms: _20  and  _21
REMARK    9  A    between atoms: _20  and  _23
REMARK   10  A    between atoms: _23  and  _24
REMARK   11  A    between atoms: _27  and  _29
REMARK   12  A    between atoms: _29  and  _30
REMARK   13  A    between atoms: _29  and  _32
REMARK   14  A    between atoms: _32  and  _33
REMARK   15  A    between atoms: _36  and  _38
REMARK   16  A    between atoms: _38  and  _39
REMARK   17  A    between atoms: _38  and  _41
REMARK   18  A    between atoms: _41  and  _42
REMARK   19  A    between atoms: _45  and  _47
REMARK   20  A    between atoms: _47  and  _48
REMARK   21  A    between atoms: _47  and  _50
REMARK   22  A    between atoms: _50  and  _51
REMARK   23  A    between atoms: _54  and  _56
REMARK   24  A    between atoms: _56  and  _57
REMARK   25  A    between atoms: _56  and  _59
REMARK   26  A    between atoms: _59  and  _60
REMARK   27  A    between atoms: _63  and  _65
REMARK   28  A    between atoms: _65  and  _66
REMARK   29  A    between atoms: _68  and  _70
REMARK   30  A    between atoms: _70  and  _71
REMARK   31  A    between atoms: _74  and  _76
REMARK   32  A    between atoms: _76  and  _77
REMARK   33  A    between atoms: _76  and  _79
REMARK   34  A    between atoms: _79  and  _80
REMARK   35  A    between atoms: _83  and  _85
REMARK   36  A    between atoms: _85  and  _86
REMARK   37  A    between atoms: _85  and  _88
REMARK   38  A    between atoms: _88  and  _89
REMARK   39  A    between atoms: _92  and  _94
REMARK   40  A    between atoms: _94  and  _95
REMARK   41  A    between atoms: _94  and  _97
REMARK   42  A    between atoms: _97  and  _98
REMARK   43  A    between atoms: _101  and  _103
REMARK   44  A    between atoms: _103  and  _104
REMARK   45  A    between atoms: _103  and  _106
REMARK   46  A    between atoms: _109  and  _111
REMARK   47  A    between atoms: _111  and  _112
REMARK   48  A    between atoms: _111  and  _114
REMARK   49  A    between atoms: _114  and  _115
REMARK   50  A    between atoms: _118  and  _120
REMARK   51  A    between atoms: _120  and  _121
REMARK   52  A    between atoms: _123  and  _125
REMARK   53  A    between atoms: _125  and  _126
REMARK   54  A    between atoms: _128  and  _130
REMARK   55  A    between atoms: _130  and  _131
REMARK   56  A    between atoms: _130  and  _133
REMARK   57  A    between atoms: _133  and  _134
REMARK   58  A    between atoms: _137  and  _139
REMARK   59  A    between atoms: _139  and  _140
REMARK   60  A    between atoms: _142  and  _144
REMARK   61  A    between atoms: _144  and  _145
REMARK   62  A    between atoms: _147  and  _149
REMARK   63  A    between atoms: _149  and  _150
REMARK   64  A    between atoms: _149  and  _152
REMARK   65  A    between atoms: _152  and  _153
REMARK   66  A    between atoms: _159  and  _161
REMARK   67  A    between atoms: _161  and  _162
REMARK   68  A    between atoms: _161  and  _164
REMARK   69  A    between atoms: _164  and  _165
REMARK   70  A    between atoms: _168  and  _170
REMARK   71  A    between atoms: _170  and  _171
REMARK   72  A    between atoms: _170  and  _173
REMARK   73  A    between atoms: _176  and  _178
REMARK   74  A    between atoms: _178  and  _179
REMARK   75  A    between atoms: _178  and  _181
REMARK   76  A    between atoms: _181  and  _182
REMARK   77  A    between atoms: _186  and  _187
REMARK   78  A    between atoms: _192  and  _194
REMARK   79  A    between atoms: _194  and  _195
REMARK   80  A    between atoms: _194  and  _197
REMARK   81  A    between atoms: _197  and  _198
REMARK   82  A    between atoms: _202  and  _203
REMARK   83  A    between atoms: _208  and  _210
REMARK   84  A    between atoms: _210  and  _211
REMARK   85  A    between atoms: _210  and  _213
REMARK   86  A    between atoms: _216  and  _218
REMARK   87  A    between atoms: _218  and  _219
REMARK   88  A    between atoms: _218  and  _221
REMARK   89  A    between atoms: _221  and  _222
REMARK   90  A    between atoms: _227  and  _229
REMARK   91  A    between atoms: _229  and  _230
REMARK   92  A    between atoms: _229  and  _232
REMARK   93  A    between atoms: _232  and  _233
REMARK   94  A    between atoms: _236  and  _238
REMARK   95  A    between atoms: _238  and  _239
REMARK   96  A    between atoms: _238  and  _241
REMARK   97  A    between atoms: _241  and  _242
REMARK   98  A    between atoms: _245  and  _247
REMARK   99  A    between atoms: _247  and  _248
REMARK  100  A    between atoms: _250  and  _252
REMARK  101  A    between atoms: _252  and  _253
REMARK  102  A    between atoms: _252  and  _255
REMARK  103  A    between atoms: _255  and  _256
REMARK  104  A    between atoms: _256  and  _257
REMARK  105  A    between atoms: _257  and  _258
REMARK  106  A    between atoms: _267  and  _269
REMARK  107  A    between atoms: _269  and  _270
REMARK  108  A    between atoms: _269  and  _272
REMARK  109  A    between atoms: _272  and  _273
REMARK  110  A    between atoms: _278  and  _280
REMARK  111  A    between atoms: _280  and  _281
REMARK  112  A    between atoms: _280  and  _283
REMARK  113  A    between atoms: _283  and  _284
REMARK  114  A    between atoms: _284  and  _285
REMARK  115  A    between atoms: _285  and  _286
REMARK  116  A    between atoms: _296  and  _297
REMARK  117  A    between atoms: _302  and  _304
REMARK  118  A    between atoms: _304  and  _305
REMARK  119  A    between atoms: _304  and  _307
REMARK  120  A    between atoms: _307  and  _308
REMARK  121  A    between atoms: _311  and  _313
REMARK  122  A    between atoms: _313  and  _314
REMARK  123  A    between atoms: _313  and  _316
REMARK  124  A    between atoms: _316  and  _317
REMARK  125  A    between atoms: _320  and  _322
REMARK  126  A    between atoms: _322  and  _323
REMARK  127  A    between atoms: _322  and  _325
REMARK  128  A    between atoms: _325  and  _326
REMARK  129  A    between atoms: _329  and  _331
REMARK  130  A    between atoms: _331  and  _332
REMARK  131  A    between atoms: _331  and  _334
REMARK  132  A    between atoms: _334  and  _335
REMARK  133  A    between atoms: _338  and  _340
REMARK  134  A    between atoms: _340  and  _341
REMARK  135  A    between atoms: _340  and  _343
REMARK  136  A    between atoms: _343  and  _344
REMARK  137  A    between atoms: _347  and  _349
REMARK  138  A    between atoms: _349  and  _350
REMARK  139  A    between atoms: _352  and  _354
REMARK  140  A    between atoms: _354  and  _355
REMARK  141  A    between atoms: _358  and  _360
REMARK  142  A    between atoms: _360  and  _361
REMARK  143  A    between atoms: _360  and  _363
REMARK  144  A    between atoms: _363  and  _364
REMARK  145  A    between atoms: _367  and  _369
REMARK  146  A    between atoms: _369  and  _370
REMARK  147  A    between atoms: _369  and  _372
REMARK  148  A    between atoms: _372  and  _373
REMARK  149  A    between atoms: _376  and  _378
REMARK  150  A    between atoms: _378  and  _379
REMARK  151  A    between atoms: _378  and  _381
REMARK  152  A    between atoms: _381  and  _382
REMARK  153  A    between atoms: _385  and  _387
REMARK  154  A    between atoms: _387  and  _388
REMARK  155  A    between atoms: _387  and  _390
REMARK  156  A    between atoms: _393  and  _395
REMARK  157  A    between atoms: _395  and  _396
REMARK  158  A    between atoms: _395  and  _398
REMARK  159  A    between atoms: _398  and  _399
REMARK  160  A    between atoms: _399  and  _400
REMARK  161  A    between atoms: _400  and  _401
REMARK  162  A    between atoms: _401  and  _402
REMARK  163  A    between atoms: _406  and  _408
REMARK  164  A    between atoms: _408  and  _409
REMARK  165  A    between atoms: _408  and  _411
REMARK  166  A    between atoms: _411  and  _412
REMARK  167  A    between atoms: _412  and  _413
REMARK  168  A    between atoms: _415  and  _417
REMARK  169  A    between atoms: _417  and  _418
REMARK  170  A    between atoms: _417  and  _420
REMARK  171  A    between atoms: _420  and  _421
REMARK  172  A    between atoms: _424  and  _426
REMARK  173  A    between atoms: _426  and  _427
REMARK  174  A    between atoms: _429  and  _431
REMARK  175  A    between atoms: _431  and  _432
REMARK  176  A    between atoms: _434  and  _436
REMARK  177  A    between atoms: _436  and  _437
REMARK  178  A    between atoms: _436  and  _439
REMARK  179  A    between atoms: _439  and  _440
REMARK  180  A    between atoms: _443  and  _445
REMARK  181  A    between atoms: _445  and  _446
REMARK  182  A    between atoms: _448  and  _450
REMARK  183  A    between atoms: _450  and  _451
REMARK  184  A    between atoms: _453  and  _455
REMARK  185  A    between atoms: _455  and  _456
REMARK  186  A    between atoms: _455  and  _458
REMARK  187  A    between atoms: _458  and  _459
REMARK  188  A    between atoms: _465  and  _467
REMARK  189  A    between atoms: _467  and  _468
REMARK  190  A    between atoms: _467  and  _470
REMARK  191  A    between atoms: _470  and  _471
REMARK  192  A    between atoms: _474  and  _476
REMARK  193  A    between atoms: _476  and  _477
REMARK  194  A    between atoms: _476  and  _479
REMARK  195  A    between atoms: _482  and  _484
REMARK  196  A    between atoms: _484  and  _485
REMARK  197  A    between atoms: _484  and  _487
REMARK  198  A    between atoms: _487  and  _488
REMARK  199  A    between atoms: _491  and  _493
REMARK  200  A    between atoms: _493  and  _494
REMARK  201  A    between atoms: _493  and  _496
REMARK  202  A    between atoms: _496  and  _497
REMARK  203  A    between atoms: _501  and  _502
REMARK  204  A    between atoms: _507  and  _509
REMARK  205  A    between atoms: _509  and  _510
REMARK  206  A    between atoms: _509  and  _512
REMARK  207  A    between atoms: _515  and  _517
REMARK  208  A    between atoms: _517  and  _518
REMARK  209  A    between atoms: _517  and  _520
REMARK  210  A    between atoms: _520  and  _521
REMARK  211  A    between atoms: _526  and  _528
REMARK  212  A    between atoms: _528  and  _529
REMARK  213  A    between atoms: _528  and  _531
REMARK  214  A    between atoms: _531  and  _532
REMARK  215  A    between atoms: _535  and  _537
REMARK  216  A    between atoms: _537  and  _538
REMARK  217  A    between atoms: _537  and  _540
REMARK  218  A    between atoms: _540  and  _541
REMARK  219  A    between atoms: _544  and  _546
REMARK  220  A    between atoms: _546  and  _547
REMARK  221  A    between atoms: _549  and  _551
REMARK  222  A    between atoms: _551  and  _552
REMARK  223  A    between atoms: _551  and  _554
REMARK  224  A    between atoms: _554  and  _555
REMARK  225  A    between atoms: _555  and  _556
REMARK  226  A    between atoms: _556  and  _557
REMARK  227  A    between atoms: _566  and  _568
REMARK  228  A    between atoms: _568  and  _569
REMARK  229  A    between atoms: _568  and  _571
REMARK  230  A    between atoms: _571  and  _572
REMARK                            x       y       z     vdW  Elec       q    Type
REMARK                         _______ _______ _______ _____ _____    ______ ____
ROOT
ATOM      1  O   HOH     1      18.261  28.487   5.253  0.00  0.00    +0.000 OA
ENDROOT
TORSDOF 0
REMARK  Name = ../refined-set-2016/3o9i/3o9i_pocket.pdb
REMARK  230 active torsions:
REMARK  status: ('A' for Active; 'I' for Inactive)
REMARK    1  A    between atoms: _1  and  _3
REMARK    2  A    between atoms: _3  and  _4
REMARK    3  A    between atoms: _3  and  _6
REMARK    4  A    between atoms: _6  and  _7
REMARK    5  A    between atoms: _7  and  _8
REMARK    6  A    between atoms: _8  and  _9
REMARK    7  A    between atoms: _18  and  _20
REMARK    8  A    between atoms: _20  and  _21
REMARK    9  A    between atoms: _20  and  _23
REMARK   10  A    between atoms: _23  and  _24
REMARK   11  A    between atoms: _27  and  _29
REMARK   12  A    between atoms: _29  and  _30
REMARK   13  A    between atoms: _29  and  _32
REMARK   14  A    between atoms: _32  and  _33
REMARK   15  A    between atoms: _36  and  _38
REMARK   16  A    between atoms: _38  and  _39
REMARK   17  A    between atoms: _38  and  _41
REMARK   18  A    between atoms: _41  and  _42
REMARK   19  A    between atoms: _45  and  _47
REMARK   20  A    between atoms: _47  and  _48
REMARK   21  A    between atoms: _47  and  _50
REMARK   22  A    between atoms: _50  and  _51
REMARK   23  A    between atoms: _54  and  _56
REMARK   24  A    between atoms: _56  and  _57
REMARK   25  A    between atoms: _56  and  _59
REMARK   26  A    between atoms: _59  and  _60
REMARK   27  A    between atoms: _63  and  _65
REMARK   28  A    between atoms: _65  and  _66
REMARK   29  A    between atoms: _68  and  _70
REMARK   30  A    between atoms: _70  and  _71
REMARK   31  A    between atoms: _74  and  _76
REMARK   32  A    between atoms: _76  and  _77
REMARK   33  A    between atoms: _76  and  _79
REMARK   34  A    between atoms: _79  and  _80
REMARK   35  A    between atoms: _83  and  _85
REMARK   36  A    between atoms: _85  and  _86
REMARK   37  A    between atoms: _85  and  _88
REMARK   38  A    between atoms: _88  and  _89
REMARK   39  A    between atoms: _92  and  _94
REMARK   40  A    between atoms: _94  and  _95
REMARK   41  A    between atoms: _94  and  _97
REMARK   42  A    between atoms: _97  and  _98
REMARK   43  A    between atoms: _101  and  _103
REMARK   44  A    between atoms: _103  and  _104
REMARK   45  A    between atoms: _103  and  _106
REMARK   46  A    between atoms: _109  and  _111
REMARK   47  A    between atoms: _111  and  _112
REMARK   48  A    between atoms: _111  and  _114
REMARK   49  A    between atoms: _114  and  _115
REMARK   50  A    between atoms: _118  and  _120
REMARK   51  A    between atoms: _120  and  _121
REMARK   52  A    between atoms: _123  and  _125
REMARK   53  A    between atoms: _125  and  _126
REMARK   54  A    between atoms: _128  and  _130
REMARK   55  A    between atoms: _130  and  _131
REMARK   56  A    between atoms: _130  and  _133
REMARK   57  A    between atoms: _133  and  _134
REMARK   58  A    between atoms: _137  and  _139
REMARK   59  A    between atoms: _139  and  _140
REMARK   60  A    between atoms: _142  and  _144
REMARK   61  A    between atoms: _144  and  _145
REMARK   62  A    between atoms: _147  and  _149
REMARK   63  A    between atoms: _149  and  _150
REMARK   64  A    between atoms: _149  and  _152
REMARK   65  A    between atoms: _152  and  _153
REMARK   66  A    between atoms: _159  and  _161
REMARK   67  A    between atoms: _161  and  _162
REMARK   68  A    between atoms: _161  and  _164
REMARK   69  A    between atoms: _164  and  _165
REMARK   70  A    between atoms: _168  and  _170
REMARK   71  A    between atoms: _170  and  _171
REMARK   72  A    between atoms: _170  and  _173
REMARK   73  A    between atoms: _176  and  _178
REMARK   74  A    between atoms: _178  and  _179
REMARK   75  A    between atoms: _178  and  _181
REMARK   76  A    between atoms: _181  and  _182
REMARK   77  A    between atoms: _186  and  _187
REMARK   78  A    between atoms: _192  and  _194
REMARK   79  A    between atoms: _194  and  _195
REMARK   80  A    between atoms: _194  and  _197
REMARK   81  A    between atoms: _197  and  _198
REMARK   82  A    between atoms: _202  and  _203
REMARK   83  A    between atoms: _208  and  _210
REMARK   84  A    between atoms: _210  and  _211
REMARK   85  A    between atoms: _210  and  _213
REMARK   86  A    between atoms: _216  and  _218
REMARK   87  A    between atoms: _218  and  _219
REMARK   88  A    between atoms: _218  and  _221
REMARK   89  A    between atoms: _221  and  _222
REMARK   90  A    between atoms: _227  and  _229
REMARK   91  A    between atoms: _229  and  _230
REMARK   92  A    between atoms: _229  and  _232
REMARK   93  A    between atoms: _232  and  _233
REMARK   94  A    between atoms: _236  and  _238
REMARK   95  A    between atoms: _238  and  _239
REMARK   96  A    between atoms: _238  and  _241
REMARK   97  A    between atoms: _241  and  _242
REMARK   98  A    between atoms: _245  and  _247
REMARK   99  A    between atoms: _247  and  _248
REMARK  100  A    between atoms: _250  and  _252
REMARK  101  A    between atoms: _252  and  _253
REMARK  102  A    between atoms: _252  and  _255
REMARK  103  A    between atoms: _255  and  _256
REMARK  104  A    between atoms: _256  and  _257
REMARK  105  A    between atoms: _257  and  _258
REMARK  106  A    between atoms: _267  and  _269
REMARK  107  A    between atoms: _269  and  _270
REMARK  108  A    between atoms: _269  and  _272
REMARK  109  A    between atoms: _272  and  _273
REMARK  110  A    between atoms: _278  and  _280
REMARK  111  A    between atoms: _280  and  _281
REMARK  112  A    between atoms: _280  and  _283
REMARK  113  A    between atoms: _283  and  _284
REMARK  114  A    between atoms: _284  and  _285
REMARK  115  A    between atoms: _285  and  _286
REMARK  116  A    between atoms: _296  and  _297
REMARK  117  A    between atoms: _302  and  _304
REMARK  118  A    between atoms: _304  and  _305
REMARK  119  A    between atoms: _304  and  _307
REMARK  120  A    between atoms: _307  and  _308
REMARK  121  A    between atoms: _311  and  _313
REMARK  122  A    between atoms: _313  and  _314
REMARK  123  A    between atoms: _313  and  _316
REMARK  124  A    between atoms: _316  and  _317
REMARK  125  A    between atoms: _320  and  _322
REMARK  126  A    between atoms: _322  and  _323
REMARK  127  A    between atoms: _322  and  _325
REMARK  128  A    between atoms: _325  and  _326
REMARK  129  A    between atoms: _329  and  _331
REMARK  130  A    between atoms: _331  and  _332
REMARK  131  A    between atoms: _331  and  _334
REMARK  132  A    between atoms: _334  and  _335
REMARK  133  A    between atoms: _338  and  _340
REMARK  134  A    between atoms: _340  and  _341
REMARK  135  A    between atoms: _340  and  _343
REMARK  136  A    between atoms: _343  and  _344
REMARK  137  A    between atoms: _347  and  _349
REMARK  138  A    between atoms: _349  and  _350
REMARK  139  A    between atoms: _352  and  _354
REMARK  140  A    between atoms: _354  and  _355
REMARK  141  A    between atoms: _358  and  _360
REMARK  142  A    between atoms: _360  and  _361
REMARK  143  A    between atoms: _360  and  _363
REMARK  144  A    between atoms: _363  and  _364
REMARK  145  A    between atoms: _367  and  _369
REMARK  146  A    between atoms: _369  and  _370
REMARK  147  A    between atoms: _369  and  _372
REMARK  148  A    between atoms: _372  and  _373
REMARK  149  A    between atoms: _376  and  _378
REMARK  150  A    between atoms: _378  and  _379
REMARK  151  A    between atoms: _378  and  _381
REMARK  152  A    between atoms: _381  and  _382
REMARK  153  A    between atoms: _385  and  _387
REMARK  154  A    between atoms: _387  and  _388
REMARK  155  A    between atoms: _387  and  _390
REMARK  156  A    between atoms: _393  and  _395
REMARK  157  A    between atoms: _395  and  _396
REMARK  158  A    between atoms: _395  and  _398
REMARK  159  A    between atoms: _398  and  _399
REMARK  160  A    between atoms: _399  and  _400
REMARK  161  A    between atoms: _400  and  _401
REMARK  162  A    between atoms: _401  and  _402
REMARK  163  A    between atoms: _406  and  _408
REMARK  164  A    between atoms: _408  and  _409
REMARK  165  A    between atoms: _408  and  _411
REMARK  166  A    between atoms: _411  and  _412
REMARK  167  A    between atoms: _412  and  _413
REMARK  168  A    between atoms: _415  and  _417
REMARK  169  A    between atoms: _417  and  _418
REMARK  170  A    between atoms: _417  and  _420
REMARK  171  A    between atoms: _420  and  _421
REMARK  172  A    between atoms: _424  and  _426
REMARK  173  A    between atoms: _426  and  _427
REMARK  174  A    between atoms: _429  and  _431
REMARK  175  A    between atoms: _431  and  _432
REMARK  176  A    between atoms: _434  and  _436
REMARK  177  A    between atoms: _436  and  _437
REMARK  178  A    between atoms: _436  and  _439
REMARK  179  A    between atoms: _439  and  _440
REMARK  180  A    between atoms: _443  and  _445
REMARK  181  A    between atoms: _445  and  _446
REMARK  182  A    between atoms: _448  and  _450
REMARK  183  A    between atoms: _450  and  _451
REMARK  184  A    between atoms: _453  and  _455
REMARK  185  A    between atoms: _455  and  _456
REMARK  186  A    between atoms: _455  and  _458
REMARK  187  A    between atoms: _458  and  _459
REMARK  188  A    between atoms: _465  and  _467
REMARK  189  A    between atoms: _467  and  _468
REMARK  190  A    between atoms: _467  and  _470
REMARK  191  A    between atoms: _470  and  _471
REMARK  192  A    between atoms: _474  and  _476
REMARK  193  A    between atoms: _476  and  _477
REMARK  194  A    between atoms: _476  and  _479
REMARK  195  A    between atoms: _482  and  _484
REMARK  196  A    between atoms: _484  and  _485
REMARK  197  A    between atoms: _484  and  _487
REMARK  198  A    between atoms: _487  and  _488
REMARK  199  A    between atoms: _491  and  _493
REMARK  200  A    between atoms: _493  and  _494
REMARK  201  A    between atoms: _493  and  _496
REMARK  202  A    between atoms: _496  and  _497
REMARK  203  A    between atoms: _501  and  _502
REMARK  204  A    between atoms: _507  and  _509
REMARK  205  A    between atoms: _509  and  _510
REMARK  206  A    between atoms: _509  and  _512
REMARK  207  A    between atoms: _515  and  _517
REMARK  208  A    between atoms: _517  and  _518
REMARK  209  A    between atoms: _517  and  _520
REMARK  210  A    between atoms: _520  and  _521
REMARK  211  A    between atoms: _526  and  _528
REMARK  212  A    between atoms: _528  and  _529
REMARK  213  A    between atoms: _528  and  _531
REMARK  214  A    between atoms: _531  and  _532
REMARK  215  A    between atoms: _535  and  _537
REMARK  216  A    between atoms: _537  and  _538
REMARK  217  A    between atoms: _537  and  _540
REMARK  218  A    between atoms: _540  and  _541
REMARK  219  A    between atoms: _544  and  _546
REMARK  220  A    between atoms: _546  and  _547
REMARK  221  A    between atoms: _549  and  _551
REMARK  222  A    between atoms: _551  and  _552
REMARK  223  A    between atoms: _551  and  _554
REMARK  224  A    between atoms: _554  and  _555
REMARK  225  A    between atoms: _555  and  _556
REMARK  226  A    between atoms: _556  and  _557
REMARK  227  A    between atoms: _566  and  _568
REMARK  228  A    between atoms: _568  and  _569
REMARK  229  A    between atoms: _568  and  _571
REMARK  230  A    between atoms: _571  and  _572
REMARK                            x       y       z     vdW  Elec       q    Type
REMARK                         _______ _______ _______ _____ _____    ______ ____
ROOT
ATOM      1  O   HOH     1      26.112  37.555  22.499  0.00  0.00    +0.000 OA
ENDROOT
TORSDOF 0
REMARK  Name = ../refined-set-2016/3o9i/3o9i_pocket.pdb
REMARK  230 active torsions:
REMARK  status: ('A' for Active; 'I' for Inactive)
REMARK    1  A    between atoms: _1  and  _3
REMARK    2  A    between atoms: _3  and  _4
REMARK    3  A    between atoms: _3  and  _6
REMARK    4  A    between atoms: _6  and  _7
REMARK    5  A    between atoms: _7  and  _8
REMARK    6  A    between atoms: _8  and  _9
REMARK    7  A    between atoms: _18  and  _20
REMARK    8  A    between atoms: _20  and  _21
REMARK    9  A    between atoms: _20  and  _23
REMARK   10  A    between atoms: _23  and  _24
REMARK   11  A    between atoms: _27  and  _29
REMARK   12  A    between atoms: _29  and  _30
REMARK   13  A    between atoms: _29  and  _32
REMARK   14  A    between atoms: _32  and  _33
REMARK   15  A    between atoms: _36  and  _38
REMARK   16  A    between atoms: _38  and  _39
REMARK   17  A    between atoms: _38  and  _41
REMARK   18  A    between atoms: _41  and  _42
REMARK   19  A    between atoms: _45  and  _47
REMARK   20  A    between atoms: _47  and  _48
REMARK   21  A    between atoms: _47  and  _50
REMARK   22  A    between atoms: _50  and  _51
REMARK   23  A    between atoms: _54  and  _56
REMARK   24  A    between atoms: _56  and  _57
REMARK   25  A    between atoms: _56  and  _59
REMARK   26  A    between atoms: _59  and  _60
REMARK   27  A    between atoms: _63  and  _65
REMARK   28  A    between atoms: _65  and  _66
REMARK   29  A    between atoms: _68  and  _70
REMARK   30  A    between atoms: _70  and  _71
REMARK   31  A    between atoms: _74  and  _76
REMARK   32  A    between atoms: _76  and  _77
REMARK   33  A    between atoms: _76  and  _79
REMARK   34  A    between atoms: _79  and  _80
REMARK   35  A    between atoms: _83  and  _85
REMARK   36  A    between atoms: _85  and  _86
REMARK   37  A    between atoms: _85  and  _88
REMARK   38  A    between atoms: _88  and  _89
REMARK   39  A    between atoms: _92  and  _94
REMARK   40  A    between atoms: _94  and  _95
REMARK   41  A    between atoms: _94  and  _97
REMARK   42  A    between atoms: _97  and  _98
REMARK   43  A    between atoms: _101  and  _103
REMARK   44  A    between atoms: _103  and  _104
REMARK   45  A    between atoms: _103  and  _106
REMARK   46  A    between atoms: _109  and  _111
REMARK   47  A    between atoms: _111  and  _112
REMARK   48  A    between atoms: _111  and  _114
REMARK   49  A    between atoms: _114  and  _115
REMARK   50  A    between atoms: _118  and  _120
REMARK   51  A    between atoms: _120  and  _121
REMARK   52  A    between atoms: _123  and  _125
REMARK   53  A    between atoms: _125  and  _126
REMARK   54  A    between atoms: _128  and  _130
REMARK   55  A    between atoms: _130  and  _131
REMARK   56  A    between atoms: _130  and  _133
REMARK   57  A    between atoms: _133  and  _134
REMARK   58  A    between atoms: _137  and  _139
REMARK   59  A    between atoms: _139  and  _140
REMARK   60  A    between atoms: _142  and  _144
REMARK   61  A    between atoms: _144  and  _145
REMARK   62  A    between atoms: _147  and  _149
REMARK   63  A    between atoms: _149  and  _150
REMARK   64  A    between atoms: _149  and  _152
REMARK   65  A    between atoms: _152  and  _153
REMARK   66  A    between atoms: _159  and  _161
REMARK   67  A    between atoms: _161  and  _162
REMARK   68  A    between atoms: _161  and  _164
REMARK   69  A    between atoms: _164  and  _165
REMARK   70  A    between atoms: _168  and  _170
REMARK   71  A    between atoms: _170  and  _171
REMARK   72  A    between atoms: _170  and  _173
REMARK   73  A    between atoms: _176  and  _178
REMARK   74  A    between atoms: _178  and  _179
REMARK   75  A    between atoms: _178  and  _181
REMARK   76  A    between atoms: _181  and  _182
REMARK   77  A    between atoms: _186  and  _187
REMARK   78  A    between atoms: _192  and  _194
REMARK   79  A    between atoms: _194  and  _195
REMARK   80  A    between atoms: _194  and  _197
REMARK   81  A    between atoms: _197  and  _198
REMARK   82  A    between atoms: _202  and  _203
REMARK   83  A    between atoms: _208  and  _210
REMARK   84  A    between atoms: _210  and  _211
REMARK   85  A    between atoms: _210  and  _213
REMARK   86  A    between atoms: _216  and  _218
REMARK   87  A    between atoms: _218  and  _219
REMARK   88  A    between atoms: _218  and  _221
REMARK   89  A    between atoms: _221  and  _222
REMARK   90  A    between atoms: _227  and  _229
REMARK   91  A    between atoms: _229  and  _230
REMARK   92  A    between atoms: _229  and  _232
REMARK   93  A    between atoms: _232  and  _233
REMARK   94  A    between atoms: _236  and  _238
REMARK   95  A    between atoms: _238  and  _239
REMARK   96  A    between atoms: _238  and  _241
REMARK   97  A    between atoms: _241  and  _242
REMARK   98  A    between atoms: _245  and  _247
REMARK   99  A    between atoms: _247  and  _248
REMARK  100  A    between atoms: _250  and  _252
REMARK  101  A    between atoms: _252  and  _253
REMARK  102  A    between atoms: _252  and  _255
REMARK  103  A    between atoms: _255  and  _256
REMARK  104  A    between atoms: _256  and  _257
REMARK  105  A    between atoms: _257  and  _258
REMARK  106  A    between atoms: _267  and  _269
REMARK  107  A    between atoms: _269  and  _270
REMARK  108  A    between atoms: _269  and  _272
REMARK  109  A    between atoms: _272  and  _273
REMARK  110  A    between atoms: _278  and  _280
REMARK  111  A    between atoms: _280  and  _281
REMARK  112  A    between atoms: _280  and  _283
REMARK  113  A    between atoms: _283  and  _284
REMARK  114  A    between atoms: _284  and  _285
REMARK  115  A    between atoms: _285  and  _286
REMARK  116  A    between atoms: _296  and  _297
REMARK  117  A    between atoms: _302  and  _304
REMARK  118  A    between atoms: _304  and  _305
REMARK  119  A    between atoms: _304  and  _307
REMARK  120  A    between atoms: _307  and  _308
REMARK  121  A    between atoms: _311  and  _313
REMARK  122  A    between atoms: _313  and  _314
REMARK  123  A    between atoms: _313  and  _316
REMARK  124  A    between atoms: _316  and  _317
REMARK  125  A    between atoms: _320  and  _322
REMARK  126  A    between atoms: _322  and  _323
REMARK  127  A    between atoms: _322  and  _325
REMARK  128  A    between atoms: _325  and  _326
REMARK  129  A    between atoms: _329  and  _331
REMARK  130  A    between atoms: _331  and  _332
REMARK  131  A    between atoms: _331  and  _334
REMARK  132  A    between atoms: _334  and  _335
REMARK  133  A    between atoms: _338  and  _340
REMARK  134  A    between atoms: _340  and  _341
REMARK  135  A    between atoms: _340  and  _343
REMARK  136  A    between atoms: _343  and  _344
REMARK  137  A    between atoms: _347  and  _349
REMARK  138  A    between atoms: _349  and  _350
REMARK  139  A    between atoms: _352  and  _354
REMARK  140  A    between atoms: _354  and  _355
REMARK  141  A    between atoms: _358  and  _360
REMARK  142  A    between atoms: _360  and  _361
REMARK  143  A    between atoms: _360  and  _363
REMARK  144  A    between atoms: _363  and  _364
REMARK  145  A    between atoms: _367  and  _369
REMARK  146  A    between atoms: _369  and  _370
REMARK  147  A    between atoms: _369  and  _372
REMARK  148  A    between atoms: _372  and  _373
REMARK  149  A    between atoms: _376  and  _378
REMARK  150  A    between atoms: _378  and  _379
REMARK  151  A    between atoms: _378  and  _381
REMARK  152  A    between atoms: _381  and  _382
REMARK  153  A    between atoms: _385  and  _387
REMARK  154  A    between atoms: _387  and  _388
REMARK  155  A    between atoms: _387  and  _390
REMARK  156  A    between atoms: _393  and  _395
REMARK  157  A    between atoms: _395  and  _396
REMARK  158  A    between atoms: _395  and  _398
REMARK  159  A    between atoms: _398  and  _399
REMARK  160  A    between atoms: _399  and  _400
REMARK  161  A    between atoms: _400  and  _401
REMARK  162  A    between atoms: _401  and  _402
REMARK  163  A    between atoms: _406  and  _408
REMARK  164  A    between atoms: _408  and  _409
REMARK  165  A    between atoms: _408  and  _411
REMARK  166  A    between atoms: _411  and  _412
REMARK  167  A    between atoms: _412  and  _413
REMARK  168  A    between atoms: _415  and  _417
REMARK  169  A    between atoms: _417  and  _418
REMARK  170  A    between atoms: _417  and  _420
REMARK  171  A    between atoms: _420  and  _421
REMARK  172  A    between atoms: _424  and  _426
REMARK  173  A    between atoms: _426  and  _427
REMARK  174  A    between atoms: _429  and  _431
REMARK  175  A    between atoms: _431  and  _432
REMARK  176  A    between atoms: _434  and  _436
REMARK  177  A    between atoms: _436  and  _437
REMARK  178  A    between atoms: _436  and  _439
REMARK  179  A    between atoms: _439  and  _440
REMARK  180  A    between atoms: _443  and  _445
REMARK  181  A    between atoms: _445  and  _446
REMARK  182  A    between atoms: _448  and  _450
REMARK  183  A    between atoms: _450  and  _451
REMARK  184  A    between atoms: _453  and  _455
REMARK  185  A    between atoms: _455  and  _456
REMARK  186  A    between atoms: _455  and  _458
REMARK  187  A    between atoms: _458  and  _459
REMARK  188  A    between atoms: _465  and  _467
REMARK  189  A    between atoms: _467  and  _468
REMARK  190  A    between atoms: _467  and  _470
REMARK  191  A    between atoms: _470  and  _471
REMARK  192  A    between atoms: _474  and  _476
REMARK  193  A    between atoms: _476  and  _477
REMARK  194  A    between atoms: _476  and  _479
REMARK  195  A    between atoms: _482  and  _484
REMARK  196  A    between atoms: _484  and  _485
REMARK  197  A    between atoms: _484  and  _487
REMARK  198  A    between atoms: _487  and  _488
REMARK  199  A    between atoms: _491  and  _493
REMARK  200  A    between atoms: _493  and  _494
REMARK  201  A    between atoms: _493  and  _496
REMARK  202  A    between atoms: _496  and  _497
REMARK  203  A    between atoms: _501  and  _502
REMARK  204  A    between atoms: _507  and  _509
REMARK  205  A    between atoms: _509  and  _510
REMARK  206  A    between atoms: _509  and  _512
REMARK  207  A    between atoms: _515  and  _517
REMARK  208  A    between atoms: _517  and  _518
REMARK  209  A    between atoms: _517  and  _520
REMARK  210  A    between atoms: _520  and  _521
REMARK  211  A    between atoms: _526  and  _528
REMARK  212  A    between atoms: _528  and  _529
REMARK  213  A    between atoms: _528  and  _531
REMARK  214  A    between atoms: _531  and  _532
REMARK  215  A    between atoms: _535  and  _537
REMARK  216  A    between atoms: _537  and  _538
REMARK  217  A    between atoms: _537  and  _540
REMARK  218  A    between atoms: _540  and  _541
REMARK  219  A    between atoms: _544  and  _546
REMARK  220  A    between atoms: _546  and  _547
REMARK  221  A    between atoms: _549  and  _551
REMARK  222  A    between atoms: _551  and  _552
REMARK  223  A    between atoms: _551  and  _554
REMARK  224  A    between atoms: _554  and  _555
REMARK  225  A    between atoms: _555  and  _556
REMARK  226  A    between atoms: _556  and  _557
REMARK  227  A    between atoms: _566  and  _568
REMARK  228  A    between atoms: _568  and  _569
REMARK  229  A    between atoms: _568  and  _571
REMARK  230  A    between atoms: _571  and  _572
REMARK                            x       y       z     vdW  Elec       q    Type
REMARK                         _______ _______ _______ _____ _____    ______ ____
ROOT
ATOM      1  O   HOH     1      20.280  32.226  23.661  0.00  0.00    +0.000 OA
ENDROOT
TORSDOF 0
REMARK  Name = ../refined-set-2016/3o9i/3o9i_pocket.pdb
REMARK  230 active torsions:
REMARK  status: ('A' for Active; 'I' for Inactive)
REMARK    1  A    between atoms: _1  and  _3
REMARK    2  A    between atoms: _3  and  _4
REMARK    3  A    between atoms: _3  and  _6
REMARK    4  A    between atoms: _6  and  _7
REMARK    5  A    between atoms: _7  and  _8
REMARK    6  A    between atoms: _8  and  _9
REMARK    7  A    between atoms: _18  and  _20
REMARK    8  A    between atoms: _20  and  _21
REMARK    9  A    between atoms: _20  and  _23
REMARK   10  A    between atoms: _23  and  _24
REMARK   11  A    between atoms: _27  and  _29
REMARK   12  A    between atoms: _29  and  _30
REMARK   13  A    between atoms: _29  and  _32
REMARK   14  A    between atoms: _32  and  _33
REMARK   15  A    between atoms: _36  and  _38
REMARK   16  A    between atoms: _38  and  _39
REMARK   17  A    between atoms: _38  and  _41
REMARK   18  A    between atoms: _41  and  _42
REMARK   19  A    between atoms: _45  and  _47
REMARK   20  A    between atoms: _47  and  _48
REMARK   21  A    between atoms: _47  and  _50
REMARK   22  A    between atoms: _50  and  _51
REMARK   23  A    between atoms: _54  and  _56
REMARK   24  A    between atoms: _56  and  _57
REMARK   25  A    between atoms: _56  and  _59
REMARK   26  A    between atoms: _59  and  _60
REMARK   27  A    between atoms: _63  and  _65
REMARK   28  A    between atoms: _65  and  _66
REMARK   29  A    between atoms: _68  and  _70
REMARK   30  A    between atoms: _70  and  _71
REMARK   31  A    between atoms: _74  and  _76
REMARK   32  A    between atoms: _76  and  _77
REMARK   33  A    between atoms: _76  and  _79
REMARK   34  A    between atoms: _79  and  _80
REMARK   35  A    between atoms: _83  and  _85
REMARK   36  A    between atoms: _85  and  _86
REMARK   37  A    between atoms: _85  and  _88
REMARK   38  A    between atoms: _88  and  _89
REMARK   39  A    between atoms: _92  and  _94
REMARK   40  A    between atoms: _94  and  _95
REMARK   41  A    between atoms: _94  and  _97
REMARK   42  A    between atoms: _97  and  _98
REMARK   43  A    between atoms: _101  and  _103
REMARK   44  A    between atoms: _103  and  _104
REMARK   45  A    between atoms: _103  and  _106
REMARK   46  A    between atoms: _109  and  _111
REMARK   47  A    between atoms: _111  and  _112
REMARK   48  A    between atoms: _111  and  _114
REMARK   49  A    between atoms: _114  and  _115
REMARK   50  A    between atoms: _118  and  _120
REMARK   51  A    between atoms: _120  and  _121
REMARK   52  A    between atoms: _123  and  _125
REMARK   53  A    between atoms: _125  and  _126
REMARK   54  A    between atoms: _128  and  _130
REMARK   55  A    between atoms: _130  and  _131
REMARK   56  A    between atoms: _130  and  _133
REMARK   57  A    between atoms: _133  and  _134
REMARK   58  A    between atoms: _137  and  _139
REMARK   59  A    between atoms: _139  and  _140
REMARK   60  A    between atoms: _142  and  _144
REMARK   61  A    between atoms: _144  and  _145
REMARK   62  A    between atoms: _147  and  _149
REMARK   63  A    between atoms: _149  and  _150
REMARK   64  A    between atoms: _149  and  _152
REMARK   65  A    between atoms: _152  and  _153
REMARK   66  A    between atoms: _159  and  _161
REMARK   67  A    between atoms: _161  and  _162
REMARK   68  A    between atoms: _161  and  _164
REMARK   69  A    between atoms: _164  and  _165
REMARK   70  A    between atoms: _168  and  _170
REMARK   71  A    between atoms: _170  and  _171
REMARK   72  A    between atoms: _170  and  _173
REMARK   73  A    between atoms: _176  and  _178
REMARK   74  A    between atoms: _178  and  _179
REMARK   75  A    between atoms: _178  and  _181
REMARK   76  A    between atoms: _181  and  _182
REMARK   77  A    between atoms: _186  and  _187
REMARK   78  A    between atoms: _192  and  _194
REMARK   79  A    between atoms: _194  and  _195
REMARK   80  A    between atoms: _194  and  _197
REMARK   81  A    between atoms: _197  and  _198
REMARK   82  A    between atoms: _202  and  _203
REMARK   83  A    between atoms: _208  and  _210
REMARK   84  A    between atoms: _210  and  _211
REMARK   85  A    between atoms: _210  and  _213
REMARK   86  A    between atoms: _216  and  _218
REMARK   87  A    between atoms: _218  and  _219
REMARK   88  A    between atoms: _218  and  _221
REMARK   89  A    between atoms: _221  and  _222
REMARK   90  A    between atoms: _227  and  _229
REMARK   91  A    between atoms: _229  and  _230
REMARK   92  A    between atoms: _229  and  _232
REMARK   93  A    between atoms: _232  and  _233
REMARK   94  A    between atoms: _236  and  _238
REMARK   95  A    between atoms: _238  and  _239
REMARK   96  A    between atoms: _238  and  _241
REMARK   97  A    between atoms: _241  and  _242
REMARK   98  A    between atoms: _245  and  _247
REMARK   99  A    between atoms: _247  and  _248
REMARK  100  A    between atoms: _250  and  _252
REMARK  101  A    between atoms: _252  and  _253
REMARK  102  A    between atoms: _252  and  _255
REMARK  103  A    between atoms: _255  and  _256
REMARK  104  A    between atoms: _256  and  _257
REMARK  105  A    between atoms: _257  and  _258
REMARK  106  A    between atoms: _267  and  _269
REMARK  107  A    between atoms: _269  and  _270
REMARK  108  A    between atoms: _269  and  _272
REMARK  109  A    between atoms: _272  and  _273
REMARK  110  A    between atoms: _278  and  _280
REMARK  111  A    between atoms: _280  and  _281
REMARK  112  A    between atoms: _280  and  _283
REMARK  113  A    between atoms: _283  and  _284
REMARK  114  A    between atoms: _284  and  _285
REMARK  115  A    between atoms: _285  and  _286
REMARK  116  A    between atoms: _296  and  _297
REMARK  117  A    between atoms: _302  and  _304
REMARK  118  A    between atoms: _304  and  _305
REMARK  119  A    between atoms: _304  and  _307
REMARK  120  A    between atoms: _307  and  _308
REMARK  121  A    between atoms: _311  and  _313
REMARK  122  A    between atoms: _313  and  _314
REMARK  123  A    between atoms: _313  and  _316
REMARK  124  A    between atoms: _316  and  _317
REMARK  125  A    between atoms: _320  and  _322
REMARK  126  A    between atoms: _322  and  _323
REMARK  127  A    between atoms: _322  and  _325
REMARK  128  A    between atoms: _325  and  _326
REMARK  129  A    between atoms: _329  and  _331
REMARK  130  A    between atoms: _331  and  _332
REMARK  131  A    between atoms: _331  and  _334
REMARK  132  A    between atoms: _334  and  _335
REMARK  133  A    between atoms: _338  and  _340
REMARK  134  A    between atoms: _340  and  _341
REMARK  135  A    between atoms: _340  and  _343
REMARK  136  A    between atoms: _343  and  _344
REMARK  137  A    between atoms: _347  and  _349
REMARK  138  A    between atoms: _349  and  _350
REMARK  139  A    between atoms: _352  and  _354
REMARK  140  A    between atoms: _354  and  _355
REMARK  141  A    between atoms: _358  and  _360
REMARK  142  A    between atoms: _360  and  _361
REMARK  143  A    between atoms: _360  and  _363
REMARK  144  A    between atoms: _363  and  _364
REMARK  145  A    between atoms: _367  and  _369
REMARK  146  A    between atoms: _369  and  _370
REMARK  147  A    between atoms: _369  and  _372
REMARK  148  A    between atoms: _372  and  _373
REMARK  149  A    between atoms: _376  and  _378
REMARK  150  A    between atoms: _378  and  _379
REMARK  151  A    between atoms: _378  and  _381
REMARK  152  A    between atoms: _381  and  _382
REMARK  153  A    between atoms: _385  and  _387
REMARK  154  A    between atoms: _387  and  _388
REMARK  155  A    between atoms: _387  and  _390
REMARK  156  A    between atoms: _393  and  _395
REMARK  157  A    between atoms: _395  and  _396
REMARK  158  A    between atoms: _395  and  _398
REMARK  159  A    between atoms: _398  and  _399
REMARK  160  A    between atoms: _399  and  _400
REMARK  161  A    between atoms: _400  and  _401
REMARK  162  A    between atoms: _401  and  _402
REMARK  163  A    between atoms: _406  and  _408
REMARK  164  A    between atoms: _408  and  _409
REMARK  165  A    between atoms: _408  and  _411
REMARK  166  A    between atoms: _411  and  _412
REMARK  167  A    between atoms: _412  and  _413
REMARK  168  A    between atoms: _415  and  _417
REMARK  169  A    between atoms: _417  and  _418
REMARK  170  A    between atoms: _417  and  _420
REMARK  171  A    between atoms: _420  and  _421
REMARK  172  A    between atoms: _424  and  _426
REMARK  173  A    between atoms: _426  and  _427
REMARK  174  A    between atoms: _429  and  _431
REMARK  175  A    between atoms: _431  and  _432
REMARK  176  A    between atoms: _434  and  _436
REMARK  177  A    between atoms: _436  and  _437
REMARK  178  A    between atoms: _436  and  _439
REMARK  179  A    between atoms: _439  and  _440
REMARK  180  A    between atoms: _443  and  _445
REMARK  181  A    between atoms: _445  and  _446
REMARK  182  A    between atoms: _448  and  _450
REMARK  183  A    between atoms: _450  and  _451
REMARK  184  A    between atoms: _453  and  _455
REMARK  185  A    between atoms: _455  and  _456
REMARK  186  A    between atoms: _455  and  _458
REMARK  187  A    between atoms: _458  and  _459
REMARK  188  A    between atoms: _465  and  _467
REMARK  189  A    between atoms: _467  and  _468
REMARK  190  A    between atoms: _467  and  _470
REMARK  191  A    between atoms: _470  and  _471
REMARK  192  A    between atoms: _474  and  _476
REMARK  193  A    between atoms: _476  and  _477
REMARK  194  A    between atoms: _476  and  _479
REMARK  195  A    between atoms: _482  and  _484
REMARK  196  A    between atoms: _484  and  _485
REMARK  197  A    between atoms: _484  and  _487
REMARK  198  A    between atoms: _487  and  _488
REMARK  199  A    between atoms: _491  and  _493
REMARK  200  A    between atoms: _493  and  _494
REMARK  201  A    between atoms: _493  and  _496
REMARK  202  A    between atoms: _496  and  _497
REMARK  203  A    between atoms: _501  and  _502
REMARK  204  A    between atoms: _507  and  _509
REMARK  205  A    between atoms: _509  and  _510
REMARK  206  A    between atoms: _509  and  _512
REMARK  207  A    between atoms: _515  and  _517
REMARK  208  A    between atoms: _517  and  _518
REMARK  209  A    between atoms: _517  and  _520
REMARK  210  A    between atoms: _520  and  _521
REMARK  211  A    between atoms: _526  and  _528
REMARK  212  A    between atoms: _528  and  _529
REMARK  213  A    between atoms: _528  and  _531
REMARK  214  A    between atoms: _531  and  _532
REMARK  215  A    between atoms: _535  and  _537
REMARK  216  A    between atoms: _537  and  _538
REMARK  217  A    between atoms: _537  and  _540
REMARK  218  A    between atoms: _540  and  _541
REMARK  219  A    between atoms: _544  and  _546
REMARK  220  A    between atoms: _546  and  _547
REMARK  221  A    between atoms: _549  and  _551
REMARK  222  A    between atoms: _551  and  _552
REMARK  223  A    between atoms: _551  and  _554
REMARK  224  A    between atoms: _554  and  _555
REMARK  225  A    between atoms: _555  and  _556
REMARK  226  A    between atoms: _556  and  _557
REMARK  227  A    between atoms: _566  and  _568
REMARK  228  A    between atoms: _568  and  _569
REMARK  229  A    between atoms: _568  and  _571
REMARK  230  A    between atoms: _571  and  _572
REMARK                            x       y       z     vdW  Elec       q    Type
REMARK                         _______ _______ _______ _____ _____    ______ ____
ROOT
ATOM      1  O   HOH     1      20.737  34.048  21.572  0.00  0.00    +0.000 OA
ENDROOT
TORSDOF 0
REMARK  Name = ../refined-set-2016/3o9i/3o9i_pocket.pdb
REMARK  230 active torsions:
REMARK  status: ('A' for Active; 'I' for Inactive)
REMARK    1  A    between atoms: _1  and  _3
REMARK    2  A    between atoms: _3  and  _4
REMARK    3  A    between atoms: _3  and  _6
REMARK    4  A    between atoms: _6  and  _7
REMARK    5  A    between atoms: _7  and  _8
REMARK    6  A    between atoms: _8  and  _9
REMARK    7  A    between atoms: _18  and  _20
REMARK    8  A    between atoms: _20  and  _21
REMARK    9  A    between atoms: _20  and  _23
REMARK   10  A    between atoms: _23  and  _24
REMARK   11  A    between atoms: _27  and  _29
REMARK   12  A    between atoms: _29  and  _30
REMARK   13  A    between atoms: _29  and  _32
REMARK   14  A    between atoms: _32  and  _33
REMARK   15  A    between atoms: _36  and  _38
REMARK   16  A    between atoms: _38  and  _39
REMARK   17  A    between atoms: _38  and  _41
REMARK   18  A    between atoms: _41  and  _42
REMARK   19  A    between atoms: _45  and  _47
REMARK   20  A    between atoms: _47  and  _48
REMARK   21  A    between atoms: _47  and  _50
REMARK   22  A    between atoms: _50  and  _51
REMARK   23  A    between atoms: _54  and  _56
REMARK   24  A    between atoms: _56  and  _57
REMARK   25  A    between atoms: _56  and  _59
REMARK   26  A    between atoms: _59  and  _60
REMARK   27  A    between atoms: _63  and  _65
REMARK   28  A    between atoms: _65  and  _66
REMARK   29  A    between atoms: _68  and  _70
REMARK   30  A    between atoms: _70  and  _71
REMARK   31  A    between atoms: _74  and  _76
REMARK   32  A    between atoms: _76  and  _77
REMARK   33  A    between atoms: _76  and  _79
REMARK   34  A    between atoms: _79  and  _80
REMARK   35  A    between atoms: _83  and  _85
REMARK   36  A    between atoms: _85  and  _86
REMARK   37  A    between atoms: _85  and  _88
REMARK   38  A    between atoms: _88  and  _89
REMARK   39  A    between atoms: _92  and  _94
REMARK   40  A    between atoms: _94  and  _95
REMARK   41  A    between atoms: _94  and  _97
REMARK   42  A    between atoms: _97  and  _98
REMARK   43  A    between atoms: _101  and  _103
REMARK   44  A    between atoms: _103  and  _104
REMARK   45  A    between atoms: _103  and  _106
REMARK   46  A    between atoms: _109  and  _111
REMARK   47  A    between atoms: _111  and  _112
REMARK   48  A    between atoms: _111  and  _114
REMARK   49  A    between atoms: _114  and  _115
REMARK   50  A    between atoms: _118  and  _120
REMARK   51  A    between atoms: _120  and  _121
REMARK   52  A    between atoms: _123  and  _125
REMARK   53  A    between atoms: _125  and  _126
REMARK   54  A    between atoms: _128  and  _130
REMARK   55  A    between atoms: _130  and  _131
REMARK   56  A    between atoms: _130  and  _133
REMARK   57  A    between atoms: _133  and  _134
REMARK   58  A    between atoms: _137  and  _139
REMARK   59  A    between atoms: _139  and  _140
REMARK   60  A    between atoms: _142  and  _144
REMARK   61  A    between atoms: _144  and  _145
REMARK   62  A    between atoms: _147  and  _149
REMARK   63  A    between atoms: _149  and  _150
REMARK   64  A    between atoms: _149  and  _152
REMARK   65  A    between atoms: _152  and  _153
REMARK   66  A    between atoms: _159  and  _161
REMARK   67  A    between atoms: _161  and  _162
REMARK   68  A    between atoms: _161  and  _164
REMARK   69  A    between atoms: _164  and  _165
REMARK   70  A    between atoms: _168  and  _170
REMARK   71  A    between atoms: _170  and  _171
REMARK   72  A    between atoms: _170  and  _173
REMARK   73  A    between atoms: _176  and  _178
REMARK   74  A    between atoms: _178  and  _179
REMARK   75  A    between atoms: _178  and  _181
REMARK   76  A    between atoms: _181  and  _182
REMARK   77  A    between atoms: _186  and  _187
REMARK   78  A    between atoms: _192  and  _194
REMARK   79  A    between atoms: _194  and  _195
REMARK   80  A    between atoms: _194  and  _197
REMARK   81  A    between atoms: _197  and  _198
REMARK   82  A    between atoms: _202  and  _203
REMARK   83  A    between atoms: _208  and  _210
REMARK   84  A    between atoms: _210  and  _211
REMARK   85  A    between atoms: _210  and  _213
REMARK   86  A    between atoms: _216  and  _218
REMARK   87  A    between atoms: _218  and  _219
REMARK   88  A    between atoms: _218  and  _221
REMARK   89  A    between atoms: _221  and  _222
REMARK   90  A    between atoms: _227  and  _229
REMARK   91  A    between atoms: _229  and  _230
REMARK   92  A    between atoms: _229  and  _232
REMARK   93  A    between atoms: _232  and  _233
REMARK   94  A    between atoms: _236  and  _238
REMARK   95  A    between atoms: _238  and  _239
REMARK   96  A    between atoms: _238  and  _241
REMARK   97  A    between atoms: _241  and  _242
REMARK   98  A    between atoms: _245  and  _247
REMARK   99  A    between atoms: _247  and  _248
REMARK  100  A    between atoms: _250  and  _252
REMARK  101  A    between atoms: _252  and  _253
REMARK  102  A    between atoms: _252  and  _255
REMARK  103  A    between atoms: _255  and  _256
REMARK  104  A    between atoms: _256  and  _257
REMARK  105  A    between atoms: _257  and  _258
REMARK  106  A    between atoms: _267  and  _269
REMARK  107  A    between atoms: _269  and  _270
REMARK  108  A    between atoms: _269  and  _272
REMARK  109  A    between atoms: _272  and  _273
REMARK  110  A    between atoms: _278  and  _280
REMARK  111  A    between atoms: _280  and  _281
REMARK  112  A    between atoms: _280  and  _283
REMARK  113  A    between atoms: _283  and  _284
REMARK  114  A    between atoms: _284  and  _285
REMARK  115  A    between atoms: _285  and  _286
REMARK  116  A    between atoms: _296  and  _297
REMARK  117  A    between atoms: _302  and  _304
REMARK  118  A    between atoms: _304  and  _305
REMARK  119  A    between atoms: _304  and  _307
REMARK  120  A    between atoms: _307  and  _308
REMARK  121  A    between atoms: _311  and  _313
REMARK  122  A    between atoms: _313  and  _314
REMARK  123  A    between atoms: _313  and  _316
REMARK  124  A    between atoms: _316  and  _317
REMARK  125  A    between atoms: _320  and  _322
REMARK  126  A    between atoms: _322  and  _323
REMARK  127  A    between atoms: _322  and  _325
REMARK  128  A    between atoms: _325  and  _326
REMARK  129  A    between atoms: _329  and  _331
REMARK  130  A    between atoms: _331  and  _332
REMARK  131  A    between atoms: _331  and  _334
REMARK  132  A    between atoms: _334  and  _335
REMARK  133  A    between atoms: _338  and  _340
REMARK  134  A    between atoms: _340  and  _341
REMARK  135  A    between atoms: _340  and  _343
REMARK  136  A    between atoms: _343  and  _344
REMARK  137  A    between atoms: _347  and  _349
REMARK  138  A    between atoms: _349  and  _350
REMARK  139  A    between atoms: _352  and  _354
REMARK  140  A    between atoms: _354  and  _355
REMARK  141  A    between atoms: _358  and  _360
REMARK  142  A    between atoms: _360  and  _361
REMARK  143  A    between atoms: _360  and  _363
REMARK  144  A    between atoms: _363  and  _364
REMARK  145  A    between atoms: _367  and  _369
REMARK  146  A    between atoms: _369  and  _370
REMARK  147  A    between atoms: _369  and  _372
REMARK  148  A    between atoms: _372  and  _373
REMARK  149  A    between atoms: _376  and  _378
REMARK  150  A    between atoms: _378  and  _379
REMARK  151  A    between atoms: _378  and  _381
REMARK  152  A    between atoms: _381  and  _382
REMARK  153  A    between atoms: _385  and  _387
REMARK  154  A    between atoms: _387  and  _388
REMARK  155  A    between atoms: _387  and  _390
REMARK  156  A    between atoms: _393  and  _395
REMARK  157  A    between atoms: _395  and  _396
REMARK  158  A    between atoms: _395  and  _398
REMARK  159  A    between atoms: _398  and  _399
REMARK  160  A    between atoms: _399  and  _400
REMARK  161  A    between atoms: _400  and  _401
REMARK  162  A    between atoms: _401  and  _402
REMARK  163  A    between atoms: _406  and  _408
REMARK  164  A    between atoms: _408  and  _409
REMARK  165  A    between atoms: _408  and  _411
REMARK  166  A    between atoms: _411  and  _412
REMARK  167  A    between atoms: _412  and  _413
REMARK  168  A    between atoms: _415  and  _417
REMARK  169  A    between atoms: _417  and  _418
REMARK  170  A    between atoms: _417  and  _420
REMARK  171  A    between atoms: _420  and  _421
REMARK  172  A    between atoms: _424  and  _426
REMARK  173  A    between atoms: _426  and  _427
REMARK  174  A    between atoms: _429  and  _431
REMARK  175  A    between atoms: _431  and  _432
REMARK  176  A    between atoms: _434  and  _436
REMARK  177  A    between atoms: _436  and  _437
REMARK  178  A    between atoms: _436  and  _439
REMARK  179  A    between atoms: _439  and  _440
REMARK  180  A    between atoms: _443  and  _445
REMARK  181  A    between atoms: _445  and  _446
REMARK  182  A    between atoms: _448  and  _450
REMARK  183  A    between atoms: _450  and  _451
REMARK  184  A    between atoms: _453  and  _455
REMARK  185  A    between atoms: _455  and  _456
REMARK  186  A    between atoms: _455  and  _458
REMARK  187  A    between atoms: _458  and  _459
REMARK  188  A    between atoms: _465  and  _467
REMARK  189  A    between atoms: _467  and  _468
REMARK  190  A    between atoms: _467  and  _470
REMARK  191  A    between atoms: _470  and  _471
REMARK  192  A    between atoms: _474  and  _476
REMARK  193  A    between atoms: _476  and  _477
REMARK  194  A    between atoms: _476  and  _479
REMARK  195  A    between atoms: _482  and  _484
REMARK  196  A    between atoms: _484  and  _485
REMARK  197  A    between atoms: _484  and  _487
REMARK  198  A    between atoms: _487  and  _488
REMARK  199  A    between atoms: _491  and  _493
REMARK  200  A    between atoms: _493  and  _494
REMARK  201  A    between atoms: _493  and  _496
REMARK  202  A    between atoms: _496  and  _497
REMARK  203  A    between atoms: _501  and  _502
REMARK  204  A    between atoms: _507  and  _509
REMARK  205  A    between atoms: _509  and  _510
REMARK  206  A    between atoms: _509  and  _512
REMARK  207  A    between atoms: _515  and  _517
REMARK  208  A    between atoms: _517  and  _518
REMARK  209  A    between atoms: _517  and  _520
REMARK  210  A    between atoms: _520  and  _521
REMARK  211  A    between atoms: _526  and  _528
REMARK  212  A    between atoms: _528  and  _529
REMARK  213  A    between atoms: _528  and  _531
REMARK  214  A    between atoms: _531  and  _532
REMARK  215  A    between atoms: _535  and  _537
REMARK  216  A    between atoms: _537  and  _538
REMARK  217  A    between atoms: _537  and  _540
REMARK  218  A    between atoms: _540  and  _541
REMARK  219  A    between atoms: _544  and  _546
REMARK  220  A    between atoms: _546  and  _547
REMARK  221  A    between atoms: _549  and  _551
REMARK  222  A    between atoms: _551  and  _552
REMARK  223  A    between atoms: _551  and  _554
REMARK  224  A    between atoms: _554  and  _555
REMARK  225  A    between atoms: _555  and  _556
REMARK  226  A    between atoms: _556  and  _557
REMARK  227  A    between atoms: _566  and  _568
REMARK  228  A    between atoms: _568  and  _569
REMARK  229  A    between atoms: _568  and  _571
REMARK  230  A    between atoms: _571  and  _572
REMARK                            x       y       z     vdW  Elec       q    Type
REMARK                         _______ _______ _______ _____ _____    ______ ____
ROOT
ATOM      1  O   HOH     1      19.713  36.856  19.055  0.00  0.00    +0.000 OA
ENDROOT
TORSDOF 0
REMARK  Name = ../refined-set-2016/3o9i/3o9i_pocket.pdb
REMARK  230 active torsions:
REMARK  status: ('A' for Active; 'I' for Inactive)
REMARK    1  A    between atoms: _1  and  _3
REMARK    2  A    between atoms: _3  and  _4
REMARK    3  A    between atoms: _3  and  _6
REMARK    4  A    between atoms: _6  and  _7
REMARK    5  A    between atoms: _7  and  _8
REMARK    6  A    between atoms: _8  and  _9
REMARK    7  A    between atoms: _18  and  _20
REMARK    8  A    between atoms: _20  and  _21
REMARK    9  A    between atoms: _20  and  _23
REMARK   10  A    between atoms: _23  and  _24
REMARK   11  A    between atoms: _27  and  _29
REMARK   12  A    between atoms: _29  and  _30
REMARK   13  A    between atoms: _29  and  _32
REMARK   14  A    between atoms: _32  and  _33
REMARK   15  A    between atoms: _36  and  _38
REMARK   16  A    between atoms: _38  and  _39
REMARK   17  A    between atoms: _38  and  _41
REMARK   18  A    between atoms: _41  and  _42
REMARK   19  A    between atoms: _45  and  _47
REMARK   20  A    between atoms: _47  and  _48
REMARK   21  A    between atoms: _47  and  _50
REMARK   22  A    between atoms: _50  and  _51
REMARK   23  A    between atoms: _54  and  _56
REMARK   24  A    between atoms: _56  and  _57
REMARK   25  A    between atoms: _56  and  _59
REMARK   26  A    between atoms: _59  and  _60
REMARK   27  A    between atoms: _63  and  _65
REMARK   28  A    between atoms: _65  and  _66
REMARK   29  A    between atoms: _68  and  _70
REMARK   30  A    between atoms: _70  and  _71
REMARK   31  A    between atoms: _74  and  _76
REMARK   32  A    between atoms: _76  and  _77
REMARK   33  A    between atoms: _76  and  _79
REMARK   34  A    between atoms: _79  and  _80
REMARK   35  A    between atoms: _83  and  _85
REMARK   36  A    between atoms: _85  and  _86
REMARK   37  A    between atoms: _85  and  _88
REMARK   38  A    between atoms: _88  and  _89
REMARK   39  A    between atoms: _92  and  _94
REMARK   40  A    between atoms: _94  and  _95
REMARK   41  A    between atoms: _94  and  _97
REMARK   42  A    between atoms: _97  and  _98
REMARK   43  A    between atoms: _101  and  _103
REMARK   44  A    between atoms: _103  and  _104
REMARK   45  A    between atoms: _103  and  _106
REMARK   46  A    between atoms: _109  and  _111
REMARK   47  A    between atoms: _111  and  _112
REMARK   48  A    between atoms: _111  and  _114
REMARK   49  A    between atoms: _114  and  _115
REMARK   50  A    between atoms: _118  and  _120
REMARK   51  A    between atoms: _120  and  _121
REMARK   52  A    between atoms: _123  and  _125
REMARK   53  A    between atoms: _125  and  _126
REMARK   54  A    between atoms: _128  and  _130
REMARK   55  A    between atoms: _130  and  _131
REMARK   56  A    between atoms: _130  and  _133
REMARK   57  A    between atoms: _133  and  _134
REMARK   58  A    between atoms: _137  and  _139
REMARK   59  A    between atoms: _139  and  _140
REMARK   60  A    between atoms: _142  and  _144
REMARK   61  A    between atoms: _144  and  _145
REMARK   62  A    between atoms: _147  and  _149
REMARK   63  A    between atoms: _149  and  _150
REMARK   64  A    between atoms: _149  and  _152
REMARK   65  A    between atoms: _152  and  _153
REMARK   66  A    between atoms: _159  and  _161
REMARK   67  A    between atoms: _161  and  _162
REMARK   68  A    between atoms: _161  and  _164
REMARK   69  A    between atoms: _164  and  _165
REMARK   70  A    between atoms: _168  and  _170
REMARK   71  A    between atoms: _170  and  _171
REMARK   72  A    between atoms: _170  and  _173
REMARK   73  A    between atoms: _176  and  _178
REMARK   74  A    between atoms: _178  and  _179
REMARK   75  A    between atoms: _178  and  _181
REMARK   76  A    between atoms: _181  and  _182
REMARK   77  A    between atoms: _186  and  _187
REMARK   78  A    between atoms: _192  and  _194
REMARK   79  A    between atoms: _194  and  _195
REMARK   80  A    between atoms: _194  and  _197
REMARK   81  A    between atoms: _197  and  _198
REMARK   82  A    between atoms: _202  and  _203
REMARK   83  A    between atoms: _208  and  _210
REMARK   84  A    between atoms: _210  and  _211
REMARK   85  A    between atoms: _210  and  _213
REMARK   86  A    between atoms: _216  and  _218
REMARK   87  A    between atoms: _218  and  _219
REMARK   88  A    between atoms: _218  and  _221
REMARK   89  A    between atoms: _221  and  _222
REMARK   90  A    between atoms: _227  and  _229
REMARK   91  A    between atoms: _229  and  _230
REMARK   92  A    between atoms: _229  and  _232
REMARK   93  A    between atoms: _232  and  _233
REMARK   94  A    between atoms: _236  and  _238
REMARK   95  A    between atoms: _238  and  _239
REMARK   96  A    between atoms: _238  and  _241
REMARK   97  A    between atoms: _241  and  _242
REMARK   98  A    between atoms: _245  and  _247
REMARK   99  A    between atoms: _247  and  _248
REMARK  100  A    between atoms: _250  and  _252
REMARK  101  A    between atoms: _252  and  _253
REMARK  102  A    between atoms: _252  and  _255
REMARK  103  A    between atoms: _255  and  _256
REMARK  104  A    between atoms: _256  and  _257
REMARK  105  A    between atoms: _257  and  _258
REMARK  106  A    between atoms: _267  and  _269
REMARK  107  A    between atoms: _269  and  _270
REMARK  108  A    between atoms: _269  and  _272
REMARK  109  A    between atoms: _272  and  _273
REMARK  110  A    between atoms: _278  and  _280
REMARK  111  A    between atoms: _280  and  _281
REMARK  112  A    between atoms: _280  and  _283
REMARK  113  A    between atoms: _283  and  _284
REMARK  114  A    between atoms: _284  and  _285
REMARK  115  A    between atoms: _285  and  _286
REMARK  116  A    between atoms: _296  and  _297
REMARK  117  A    between atoms: _302  and  _304
REMARK  118  A    between atoms: _304  and  _305
REMARK  119  A    between atoms: _304  and  _307
REMARK  120  A    between atoms: _307  and  _308
REMARK  121  A    between atoms: _311  and  _313
REMARK  122  A    between atoms: _313  and  _314
REMARK  123  A    between atoms: _313  and  _316
REMARK  124  A    between atoms: _316  and  _317
REMARK  125  A    between atoms: _320  and  _322
REMARK  126  A    between atoms: _322  and  _323
REMARK  127  A    between atoms: _322  and  _325
REMARK  128  A    between atoms: _325  and  _326
REMARK  129  A    between atoms: _329  and  _331
REMARK  130  A    between atoms: _331  and  _332
REMARK  131  A    between atoms: _331  and  _334
REMARK  132  A    between atoms: _334  and  _335
REMARK  133  A    between atoms: _338  and  _340
REMARK  134  A    between atoms: _340  and  _341
REMARK  135  A    between atoms: _340  and  _343
REMARK  136  A    between atoms: _343  and  _344
REMARK  137  A    between atoms: _347  and  _349
REMARK  138  A    between atoms: _349  and  _350
REMARK  139  A    between atoms: _352  and  _354
REMARK  140  A    between atoms: _354  and  _355
REMARK  141  A    between atoms: _358  and  _360
REMARK  142  A    between atoms: _360  and  _361
REMARK  143  A    between atoms: _360  and  _363
REMARK  144  A    between atoms: _363  and  _364
REMARK  145  A    between atoms: _367  and  _369
REMARK  146  A    between atoms: _369  and  _370
REMARK  147  A    between atoms: _369  and  _372
REMARK  148  A    between atoms: _372  and  _373
REMARK  149  A    between atoms: _376  and  _378
REMARK  150  A    between atoms: _378  and  _379
REMARK  151  A    between atoms: _378  and  _381
REMARK  152  A    between atoms: _381  and  _382
REMARK  153  A    between atoms: _385  and  _387
REMARK  154  A    between atoms: _387  and  _388
REMARK  155  A    between atoms: _387  and  _390
REMARK  156  A    between atoms: _393  and  _395
REMARK  157  A    between atoms: _395  and  _396
REMARK  158  A    between atoms: _395  and  _398
REMARK  159  A    between atoms: _398  and  _399
REMARK  160  A    between atoms: _399  and  _400
REMARK  161  A    between atoms: _400  and  _401
REMARK  162  A    between atoms: _401  and  _402
REMARK  163  A    between atoms: _406  and  _408
REMARK  164  A    between atoms: _408  and  _409
REMARK  165  A    between atoms: _408  and  _411
REMARK  166  A    between atoms: _411  and  _412
REMARK  167  A    between atoms: _412  and  _413
REMARK  168  A    between atoms: _415  and  _417
REMARK  169  A    between atoms: _417  and  _418
REMARK  170  A    between atoms: _417  and  _420
REMARK  171  A    between atoms: _420  and  _421
REMARK  172  A    between atoms: _424  and  _426
REMARK  173  A    between atoms: _426  and  _427
REMARK  174  A    between atoms: _429  and  _431
REMARK  175  A    between atoms: _431  and  _432
REMARK  176  A    between atoms: _434  and  _436
REMARK  177  A    between atoms: _436  and  _437
REMARK  178  A    between atoms: _436  and  _439
REMARK  179  A    between atoms: _439  and  _440
REMARK  180  A    between atoms: _443  and  _445
REMARK  181  A    between atoms: _445  and  _446
REMARK  182  A    between atoms: _448  and  _450
REMARK  183  A    between atoms: _450  and  _451
REMARK  184  A    between atoms: _453  and  _455
REMARK  185  A    between atoms: _455  and  _456
REMARK  186  A    between atoms: _455  and  _458
REMARK  187  A    between atoms: _458  and  _459
REMARK  188  A    between atoms: _465  and  _467
REMARK  189  A    between atoms: _467  and  _468
REMARK  190  A    between atoms: _467  and  _470
REMARK  191  A    between atoms: _470  and  _471
REMARK  192  A    between atoms: _474  and  _476
REMARK  193  A    between atoms: _476  and  _477
REMARK  194  A    between atoms: _476  and  _479
REMARK  195  A    between atoms: _482  and  _484
REMARK  196  A    between atoms: _484  and  _485
REMARK  197  A    between atoms: _484  and  _487
REMARK  198  A    between atoms: _487  and  _488
REMARK  199  A    between atoms: _491  and  _493
REMARK  200  A    between atoms: _493  and  _494
REMARK  201  A    between atoms: _493  and  _496
REMARK  202  A    between atoms: _496  and  _497
REMARK  203  A    between atoms: _501  and  _502
REMARK  204  A    between atoms: _507  and  _509
REMARK  205  A    between atoms: _509  and  _510
REMARK  206  A    between atoms: _509  and  _512
REMARK  207  A    between atoms: _515  and  _517
REMARK  208  A    between atoms: _517  and  _518
REMARK  209  A    between atoms: _517  and  _520
REMARK  210  A    between atoms: _520  and  _521
REMARK  211  A    between atoms: _526  and  _528
REMARK  212  A    between atoms: _528  and  _529
REMARK  213  A    between atoms: _528  and  _531
REMARK  214  A    between atoms: _531  and  _532
REMARK  215  A    between atoms: _535  and  _537
REMARK  216  A    between atoms: _537  and  _538
REMARK  217  A    between atoms: _537  and  _540
REMARK  218  A    between atoms: _540  and  _541
REMARK  219  A    between atoms: _544  and  _546
REMARK  220  A    between atoms: _546  and  _547
REMARK  221  A    between atoms: _549  and  _551
REMARK  222  A    between atoms: _551  and  _552
REMARK  223  A    between atoms: _551  and  _554
REMARK  224  A    between atoms: _554  and  _555
REMARK  225  A    between atoms: _555  and  _556
REMARK  226  A    between atoms: _556  and  _557
REMARK  227  A    between atoms: _566  and  _568
REMARK  228  A    between atoms: _568  and  _569
REMARK  229  A    between atoms: _568  and  _571
REMARK  230  A    between atoms: _571  and  _572
REMARK                            x       y       z     vdW  Elec       q    Type
REMARK                         _______ _______ _______ _____ _____    ______ ____
ROOT
ATOM      1  O   HOH     1       9.129  34.557  21.517  0.00  0.00    +0.000 OA
ENDROOT
TORSDOF 0
REMARK  Name = ../refined-set-2016/3o9i/3o9i_pocket.pdb
REMARK  230 active torsions:
REMARK  status: ('A' for Active; 'I' for Inactive)
REMARK    1  A    between atoms: _1  and  _3
REMARK    2  A    between atoms: _3  and  _4
REMARK    3  A    between atoms: _3  and  _6
REMARK    4  A    between atoms: _6  and  _7
REMARK    5  A    between atoms: _7  and  _8
REMARK    6  A    between atoms: _8  and  _9
REMARK    7  A    between atoms: _18  and  _20
REMARK    8  A    between atoms: _20  and  _21
REMARK    9  A    between atoms: _20  and  _23
REMARK   10  A    between atoms: _23  and  _24
REMARK   11  A    between atoms: _27  and  _29
REMARK   12  A    between atoms: _29  and  _30
REMARK   13  A    between atoms: _29  and  _32
REMARK   14  A    between atoms: _32  and  _33
REMARK   15  A    between atoms: _36  and  _38
REMARK   16  A    between atoms: _38  and  _39
REMARK   17  A    between atoms: _38  and  _41
REMARK   18  A    between atoms: _41  and  _42
REMARK   19  A    between atoms: _45  and  _47
REMARK   20  A    between atoms: _47  and  _48
REMARK   21  A    between atoms: _47  and  _50
REMARK   22  A    between atoms: _50  and  _51
REMARK   23  A    between atoms: _54  and  _56
REMARK   24  A    between atoms: _56  and  _57
REMARK   25  A    between atoms: _56  and  _59
REMARK   26  A    between atoms: _59  and  _60
REMARK   27  A    between atoms: _63  and  _65
REMARK   28  A    between atoms: _65  and  _66
REMARK   29  A    between atoms: _68  and  _70
REMARK   30  A    between atoms: _70  and  _71
REMARK   31  A    between atoms: _74  and  _76
REMARK   32  A    between atoms: _76  and  _77
REMARK   33  A    between atoms: _76  and  _79
REMARK   34  A    between atoms: _79  and  _80
REMARK   35  A    between atoms: _83  and  _85
REMARK   36  A    between atoms: _85  and  _86
REMARK   37  A    between atoms: _85  and  _88
REMARK   38  A    between atoms: _88  and  _89
REMARK   39  A    between atoms: _92  and  _94
REMARK   40  A    between atoms: _94  and  _95
REMARK   41  A    between atoms: _94  and  _97
REMARK   42  A    between atoms: _97  and  _98
REMARK   43  A    between atoms: _101  and  _103
REMARK   44  A    between atoms: _103  and  _104
REMARK   45  A    between atoms: _103  and  _106
REMARK   46  A    between atoms: _109  and  _111
REMARK   47  A    between atoms: _111  and  _112
REMARK   48  A    between atoms: _111  and  _114
REMARK   49  A    between atoms: _114  and  _115
REMARK   50  A    between atoms: _118  and  _120
REMARK   51  A    between atoms: _120  and  _121
REMARK   52  A    between atoms: _123  and  _125
REMARK   53  A    between atoms: _125  and  _126
REMARK   54  A    between atoms: _128  and  _130
REMARK   55  A    between atoms: _130  and  _131
REMARK   56  A    between atoms: _130  and  _133
REMARK   57  A    between atoms: _133  and  _134
REMARK   58  A    between atoms: _137  and  _139
REMARK   59  A    between atoms: _139  and  _140
REMARK   60  A    between atoms: _142  and  _144
REMARK   61  A    between atoms: _144  and  _145
REMARK   62  A    between atoms: _147  and  _149
REMARK   63  A    between atoms: _149  and  _150
REMARK   64  A    between atoms: _149  and  _152
REMARK   65  A    between atoms: _152  and  _153
REMARK   66  A    between atoms: _159  and  _161
REMARK   67  A    between atoms: _161  and  _162
REMARK   68  A    between atoms: _161  and  _164
REMARK   69  A    between atoms: _164  and  _165
REMARK   70  A    between atoms: _168  and  _170
REMARK   71  A    between atoms: _170  and  _171
REMARK   72  A    between atoms: _170  and  _173
REMARK   73  A    between atoms: _176  and  _178
REMARK   74  A    between atoms: _178  and  _179
REMARK   75  A    between atoms: _178  and  _181
REMARK   76  A    between atoms: _181  and  _182
REMARK   77  A    between atoms: _186  and  _187
REMARK   78  A    between atoms: _192  and  _194
REMARK   79  A    between atoms: _194  and  _195
REMARK   80  A    between atoms: _194  and  _197
REMARK   81  A    between atoms: _197  and  _198
REMARK   82  A    between atoms: _202  and  _203
REMARK   83  A    between atoms: _208  and  _210
REMARK   84  A    between atoms: _210  and  _211
REMARK   85  A    between atoms: _210  and  _213
REMARK   86  A    between atoms: _216  and  _218
REMARK   87  A    between atoms: _218  and  _219
REMARK   88  A    between atoms: _218  and  _221
REMARK   89  A    between atoms: _221  and  _222
REMARK   90  A    between atoms: _227  and  _229
REMARK   91  A    between atoms: _229  and  _230
REMARK   92  A    between atoms: _229  and  _232
REMARK   93  A    between atoms: _232  and  _233
REMARK   94  A    between atoms: _236  and  _238
REMARK   95  A    between atoms: _238  and  _239
REMARK   96  A    between atoms: _238  and  _241
REMARK   97  A    between atoms: _241  and  _242
REMARK   98  A    between atoms: _245  and  _247
REMARK   99  A    between atoms: _247  and  _248
REMARK  100  A    between atoms: _250  and  _252
REMARK  101  A    between atoms: _252  and  _253
REMARK  102  A    between atoms: _252  and  _255
REMARK  103  A    between atoms: _255  and  _256
REMARK  104  A    between atoms: _256  and  _257
REMARK  105  A    between atoms: _257  and  _258
REMARK  106  A    between atoms: _267  and  _269
REMARK  107  A    between atoms: _269  and  _270
REMARK  108  A    between atoms: _269  and  _272
REMARK  109  A    between atoms: _272  and  _273
REMARK  110  A    between atoms: _278  and  _280
REMARK  111  A    between atoms: _280  and  _281
REMARK  112  A    between atoms: _280  and  _283
REMARK  113  A    between atoms: _283  and  _284
REMARK  114  A    between atoms: _284  and  _285
REMARK  115  A    between atoms: _285  and  _286
REMARK  116  A    between atoms: _296  and  _297
REMARK  117  A    between atoms: _302  and  _304
REMARK  118  A    between atoms: _304  and  _305
REMARK  119  A    between atoms: _304  and  _307
REMARK  120  A    between atoms: _307  and  _308
REMARK  121  A    between atoms: _311  and  _313
REMARK  122  A    between atoms: _313  and  _314
REMARK  123  A    between atoms: _313  and  _316
REMARK  124  A    between atoms: _316  and  _317
REMARK  125  A    between atoms: _320  and  _322
REMARK  126  A    between atoms: _322  and  _323
REMARK  127  A    between atoms: _322  and  _325
REMARK  128  A    between atoms: _325  and  _326
REMARK  129  A    between atoms: _329  and  _331
REMARK  130  A    between atoms: _331  and  _332
REMARK  131  A    between atoms: _331  and  _334
REMARK  132  A    between atoms: _334  and  _335
REMARK  133  A    between atoms: _338  and  _340
REMARK  134  A    between atoms: _340  and  _341
REMARK  135  A    between atoms: _340  and  _343
REMARK  136  A    between atoms: _343  and  _344
REMARK  137  A    between atoms: _347  and  _349
REMARK  138  A    between atoms: _349  and  _350
REMARK  139  A    between atoms: _352  and  _354
REMARK  140  A    between atoms: _354  and  _355
REMARK  141  A    between atoms: _358  and  _360
REMARK  142  A    between atoms: _360  and  _361
REMARK  143  A    between atoms: _360  and  _363
REMARK  144  A    between atoms: _363  and  _364
REMARK  145  A    between atoms: _367  and  _369
REMARK  146  A    between atoms: _369  and  _370
REMARK  147  A    between atoms: _369  and  _372
REMARK  148  A    between atoms: _372  and  _373
REMARK  149  A    between atoms: _376  and  _378
REMARK  150  A    between atoms: _378  and  _379
REMARK  151  A    between atoms: _378  and  _381
REMARK  152  A    between atoms: _381  and  _382
REMARK  153  A    between atoms: _385  and  _387
REMARK  154  A    between atoms: _387  and  _388
REMARK  155  A    between atoms: _387  and  _390
REMARK  156  A    between atoms: _393  and  _395
REMARK  157  A    between atoms: _395  and  _396
REMARK  158  A    between atoms: _395  and  _398
REMARK  159  A    between atoms: _398  and  _399
REMARK  160  A    between atoms: _399  and  _400
REMARK  161  A    between atoms: _400  and  _401
REMARK  162  A    between atoms: _401  and  _402
REMARK  163  A    between atoms: _406  and  _408
REMARK  164  A    between atoms: _408  and  _409
REMARK  165  A    between atoms: _408  and  _411
REMARK  166  A    between atoms: _411  and  _412
REMARK  167  A    between atoms: _412  and  _413
REMARK  168  A    between atoms: _415  and  _417
REMARK  169  A    between atoms: _417  and  _418
REMARK  170  A    between atoms: _417  and  _420
REMARK  171  A    between atoms: _420  and  _421
REMARK  172  A    between atoms: _424  and  _426
REMARK  173  A    between atoms: _426  and  _427
REMARK  174  A    between atoms: _429  and  _431
REMARK  175  A    between atoms: _431  and  _432
REMARK  176  A    between atoms: _434  and  _436
REMARK  177  A    between atoms: _436  and  _437
REMARK  178  A    between atoms: _436  and  _439
REMARK  179  A    between atoms: _439  and  _440
REMARK  180  A    between atoms: _443  and  _445
REMARK  181  A    between atoms: _445  and  _446
REMARK  182  A    between atoms: _448  and  _450
REMARK  183  A    between atoms: _450  and  _451
REMARK  184  A    between atoms: _453  and  _455
REMARK  185  A    between atoms: _455  and  _456
REMARK  186  A    between atoms: _455  and  _458
REMARK  187  A    between atoms: _458  and  _459
REMARK  188  A    between atoms: _465  and  _467
REMARK  189  A    between atoms: _467  and  _468
REMARK  190  A    between atoms: _467  and  _470
REMARK  191  A    between atoms: _470  and  _471
REMARK  192  A    between atoms: _474  and  _476
REMARK  193  A    between atoms: _476  and  _477
REMARK  194  A    between atoms: _476  and  _479
REMARK  195  A    between atoms: _482  and  _484
REMARK  196  A    between atoms: _484  and  _485
REMARK  197  A    between atoms: _484  and  _487
REMARK  198  A    between atoms: _487  and  _488
REMARK  199  A    between atoms: _491  and  _493
REMARK  200  A    between atoms: _493  and  _494
REMARK  201  A    between atoms: _493  and  _496
REMARK  202  A    between atoms: _496  and  _497
REMARK  203  A    between atoms: _501  and  _502
REMARK  204  A    between atoms: _507  and  _509
REMARK  205  A    between atoms: _509  and  _510
REMARK  206  A    between atoms: _509  and  _512
REMARK  207  A    between atoms: _515  and  _517
REMARK  208  A    between atoms: _517  and  _518
REMARK  209  A    between atoms: _517  and  _520
REMARK  210  A    between atoms: _520  and  _521
REMARK  211  A    between atoms: _526  and  _528
REMARK  212  A    between atoms: _528  and  _529
REMARK  213  A    between atoms: _528  and  _531
REMARK  214  A    between atoms: _531  and  _532
REMARK  215  A    between atoms: _535  and  _537
REMARK  216  A    between atoms: _537  and  _538
REMARK  217  A    between atoms: _537  and  _540
REMARK  218  A    between atoms: _540  and  _541
REMARK  219  A    between atoms: _544  and  _546
REMARK  220  A    between atoms: _546  and  _547
REMARK  221  A    between atoms: _549  and  _551
REMARK  222  A    between atoms: _551  and  _552
REMARK  223  A    between atoms: _551  and  _554
REMARK  224  A    between atoms: _554  and  _555
REMARK  225  A    between atoms: _555  and  _556
REMARK  226  A    between atoms: _556  and  _557
REMARK  227  A    between atoms: _566  and  _568
REMARK  228  A    between atoms: _568  and  _569
REMARK  229  A    between atoms: _568  and  _571
REMARK  230  A    between atoms: _571  and  _572
REMARK                            x       y       z     vdW  Elec       q    Type
REMARK                         _______ _______ _______ _____ _____    ______ ____
ROOT
ATOM      1  O   HOH     1       9.610  39.050  22.847  0.00  0.00    +0.000 OA
ENDROOT
TORSDOF 0
REMARK  Name = ../refined-set-2016/3o9i/3o9i_pocket.pdb
REMARK  230 active torsions:
REMARK  status: ('A' for Active; 'I' for Inactive)
REMARK    1  A    between atoms: _1  and  _3
REMARK    2  A    between atoms: _3  and  _4
REMARK    3  A    between atoms: _3  and  _6
REMARK    4  A    between atoms: _6  and  _7
REMARK    5  A    between atoms: _7  and  _8
REMARK    6  A    between atoms: _8  and  _9
REMARK    7  A    between atoms: _18  and  _20
REMARK    8  A    between atoms: _20  and  _21
REMARK    9  A    between atoms: _20  and  _23
REMARK   10  A    between atoms: _23  and  _24
REMARK   11  A    between atoms: _27  and  _29
REMARK   12  A    between atoms: _29  and  _30
REMARK   13  A    between atoms: _29  and  _32
REMARK   14  A    between atoms: _32  and  _33
REMARK   15  A    between atoms: _36  and  _38
REMARK   16  A    between atoms: _38  and  _39
REMARK   17  A    between atoms: _38  and  _41
REMARK   18  A    between atoms: _41  and  _42
REMARK   19  A    between atoms: _45  and  _47
REMARK   20  A    between atoms: _47  and  _48
REMARK   21  A    between atoms: _47  and  _50
REMARK   22  A    between atoms: _50  and  _51
REMARK   23  A    between atoms: _54  and  _56
REMARK   24  A    between atoms: _56  and  _57
REMARK   25  A    between atoms: _56  and  _59
REMARK   26  A    between atoms: _59  and  _60
REMARK   27  A    between atoms: _63  and  _65
REMARK   28  A    between atoms: _65  and  _66
REMARK   29  A    between atoms: _68  and  _70
REMARK   30  A    between atoms: _70  and  _71
REMARK   31  A    between atoms: _74  and  _76
REMARK   32  A    between atoms: _76  and  _77
REMARK   33  A    between atoms: _76  and  _79
REMARK   34  A    between atoms: _79  and  _80
REMARK   35  A    between atoms: _83  and  _85
REMARK   36  A    between atoms: _85  and  _86
REMARK   37  A    between atoms: _85  and  _88
REMARK   38  A    between atoms: _88  and  _89
REMARK   39  A    between atoms: _92  and  _94
REMARK   40  A    between atoms: _94  and  _95
REMARK   41  A    between atoms: _94  and  _97
REMARK   42  A    between atoms: _97  and  _98
REMARK   43  A    between atoms: _101  and  _103
REMARK   44  A    between atoms: _103  and  _104
REMARK   45  A    between atoms: _103  and  _106
REMARK   46  A    between atoms: _109  and  _111
REMARK   47  A    between atoms: _111  and  _112
REMARK   48  A    between atoms: _111  and  _114
REMARK   49  A    between atoms: _114  and  _115
REMARK   50  A    between atoms: _118  and  _120
REMARK   51  A    between atoms: _120  and  _121
REMARK   52  A    between atoms: _123  and  _125
REMARK   53  A    between atoms: _125  and  _126
REMARK   54  A    between atoms: _128  and  _130
REMARK   55  A    between atoms: _130  and  _131
REMARK   56  A    between atoms: _130  and  _133
REMARK   57  A    between atoms: _133  and  _134
REMARK   58  A    between atoms: _137  and  _139
REMARK   59  A    between atoms: _139  and  _140
REMARK   60  A    between atoms: _142  and  _144
REMARK   61  A    between atoms: _144  and  _145
REMARK   62  A    between atoms: _147  and  _149
REMARK   63  A    between atoms: _149  and  _150
REMARK   64  A    between atoms: _149  and  _152
REMARK   65  A    between atoms: _152  and  _153
REMARK   66  A    between atoms: _159  and  _161
REMARK   67  A    between atoms: _161  and  _162
REMARK   68  A    between atoms: _161  and  _164
REMARK   69  A    between atoms: _164  and  _165
REMARK   70  A    between atoms: _168  and  _170
REMARK   71  A    between atoms: _170  and  _171
REMARK   72  A    between atoms: _170  and  _173
REMARK   73  A    between atoms: _176  and  _178
REMARK   74  A    between atoms: _178  and  _179
REMARK   75  A    between atoms: _178  and  _181
REMARK   76  A    between atoms: _181  and  _182
REMARK   77  A    between atoms: _186  and  _187
REMARK   78  A    between atoms: _192  and  _194
REMARK   79  A    between atoms: _194  and  _195
REMARK   80  A    between atoms: _194  and  _197
REMARK   81  A    between atoms: _197  and  _198
REMARK   82  A    between atoms: _202  and  _203
REMARK   83  A    between atoms: _208  and  _210
REMARK   84  A    between atoms: _210  and  _211
REMARK   85  A    between atoms: _210  and  _213
REMARK   86  A    between atoms: _216  and  _218
REMARK   87  A    between atoms: _218  and  _219
REMARK   88  A    between atoms: _218  and  _221
REMARK   89  A    between atoms: _221  and  _222
REMARK   90  A    between atoms: _227  and  _229
REMARK   91  A    between atoms: _229  and  _230
REMARK   92  A    between atoms: _229  and  _232
REMARK   93  A    between atoms: _232  and  _233
REMARK   94  A    between atoms: _236  and  _238
REMARK   95  A    between atoms: _238  and  _239
REMARK   96  A    between atoms: _238  and  _241
REMARK   97  A    between atoms: _241  and  _242
REMARK   98  A    between atoms: _245  and  _247
REMARK   99  A    between atoms: _247  and  _248
REMARK  100  A    between atoms: _250  and  _252
REMARK  101  A    between atoms: _252  and  _253
REMARK  102  A    between atoms: _252  and  _255
REMARK  103  A    between atoms: _255  and  _256
REMARK  104  A    between atoms: _256  and  _257
REMARK  105  A    between atoms: _257  and  _258
REMARK  106  A    between atoms: _267  and  _269
REMARK  107  A    between atoms: _269  and  _270
REMARK  108  A    between atoms: _269  and  _272
REMARK  109  A    between atoms: _272  and  _273
REMARK  110  A    between atoms: _278  and  _280
REMARK  111  A    between atoms: _280  and  _281
REMARK  112  A    between atoms: _280  and  _283
REMARK  113  A    between atoms: _283  and  _284
REMARK  114  A    between atoms: _284  and  _285
REMARK  115  A    between atoms: _285  and  _286
REMARK  116  A    between atoms: _296  and  _297
REMARK  117  A    between atoms: _302  and  _304
REMARK  118  A    between atoms: _304  and  _305
REMARK  119  A    between atoms: _304  and  _307
REMARK  120  A    between atoms: _307  and  _308
REMARK  121  A    between atoms: _311  and  _313
REMARK  122  A    between atoms: _313  and  _314
REMARK  123  A    between atoms: _313  and  _316
REMARK  124  A    between atoms: _316  and  _317
REMARK  125  A    between atoms: _320  and  _322
REMARK  126  A    between atoms: _322  and  _323
REMARK  127  A    between atoms: _322  and  _325
REMARK  128  A    between atoms: _325  and  _326
REMARK  129  A    between atoms: _329  and  _331
REMARK  130  A    between atoms: _331  and  _332
REMARK  131  A    between atoms: _331  and  _334
REMARK  132  A    between atoms: _334  and  _335
REMARK  133  A    between atoms: _338  and  _340
REMARK  134  A    between atoms: _340  and  _341
REMARK  135  A    between atoms: _340  and  _343
REMARK  136  A    between atoms: _343  and  _344
REMARK  137  A    between atoms: _347  and  _349
REMARK  138  A    between atoms: _349  and  _350
REMARK  139  A    between atoms: _352  and  _354
REMARK  140  A    between atoms: _354  and  _355
REMARK  141  A    between atoms: _358  and  _360
REMARK  142  A    between atoms: _360  and  _361
REMARK  143  A    between atoms: _360  and  _363
REMARK  144  A    between atoms: _363  and  _364
REMARK  145  A    between atoms: _367  and  _369
REMARK  146  A    between atoms: _369  and  _370
REMARK  147  A    between atoms: _369  and  _372
REMARK  148  A    between atoms: _372  and  _373
REMARK  149  A    between atoms: _376  and  _378
REMARK  150  A    between atoms: _378  and  _379
REMARK  151  A    between atoms: _378  and  _381
REMARK  152  A    between atoms: _381  and  _382
REMARK  153  A    between atoms: _385  and  _387
REMARK  154  A    between atoms: _387  and  _388
REMARK  155  A    between atoms: _387  and  _390
REMARK  156  A    between atoms: _393  and  _395
REMARK  157  A    between atoms: _395  and  _396
REMARK  158  A    between atoms: _395  and  _398
REMARK  159  A    between atoms: _398  and  _399
REMARK  160  A    between atoms: _399  and  _400
REMARK  161  A    between atoms: _400  and  _401
REMARK  162  A    between atoms: _401  and  _402
REMARK  163  A    between atoms: _406  and  _408
REMARK  164  A    between atoms: _408  and  _409
REMARK  165  A    between atoms: _408  and  _411
REMARK  166  A    between atoms: _411  and  _412
REMARK  167  A    between atoms: _412  and  _413
REMARK  168  A    between atoms: _415  and  _417
REMARK  169  A    between atoms: _417  and  _418
REMARK  170  A    between atoms: _417  and  _420
REMARK  171  A    between atoms: _420  and  _421
REMARK  172  A    between atoms: _424  and  _426
REMARK  173  A    between atoms: _426  and  _427
REMARK  174  A    between atoms: _429  and  _431
REMARK  175  A    between atoms: _431  and  _432
REMARK  176  A    between atoms: _434  and  _436
REMARK  177  A    between atoms: _436  and  _437
REMARK  178  A    between atoms: _436  and  _439
REMARK  179  A    between atoms: _439  and  _440
REMARK  180  A    between atoms: _443  and  _445
REMARK  181  A    between atoms: _445  and  _446
REMARK  182  A    between atoms: _448  and  _450
REMARK  183  A    between atoms: _450  and  _451
REMARK  184  A    between atoms: _453  and  _455
REMARK  185  A    between atoms: _455  and  _456
REMARK  186  A    between atoms: _455  and  _458
REMARK  187  A    between atoms: _458  and  _459
REMARK  188  A    between atoms: _465  and  _467
REMARK  189  A    between atoms: _467  and  _468
REMARK  190  A    between atoms: _467  and  _470
REMARK  191  A    between atoms: _470  and  _471
REMARK  192  A    between atoms: _474  and  _476
REMARK  193  A    between atoms: _476  and  _477
REMARK  194  A    between atoms: _476  and  _479
REMARK  195  A    between atoms: _482  and  _484
REMARK  196  A    between atoms: _484  and  _485
REMARK  197  A    between atoms: _484  and  _487
REMARK  198  A    between atoms: _487  and  _488
REMARK  199  A    between atoms: _491  and  _493
REMARK  200  A    between atoms: _493  and  _494
REMARK  201  A    between atoms: _493  and  _496
REMARK  202  A    between atoms: _496  and  _497
REMARK  203  A    between atoms: _501  and  _502
REMARK  204  A    between atoms: _507  and  _509
REMARK  205  A    between atoms: _509  and  _510
REMARK  206  A    between atoms: _509  and  _512
REMARK  207  A    between atoms: _515  and  _517
REMARK  208  A    between atoms: _517  and  _518
REMARK  209  A    between atoms: _517  and  _520
REMARK  210  A    between atoms: _520  and  _521
REMARK  211  A    between atoms: _526  and  _528
REMARK  212  A    between atoms: _528  and  _529
REMARK  213  A    between atoms: _528  and  _531
REMARK  214  A    between atoms: _531  and  _532
REMARK  215  A    between atoms: _535  and  _537
REMARK  216  A    between atoms: _537  and  _538
REMARK  217  A    between atoms: _537  and  _540
REMARK  218  A    between atoms: _540  and  _541
REMARK  219  A    between atoms: _544  and  _546
REMARK  220  A    between atoms: _546  and  _547
REMARK  221  A    between atoms: _549  and  _551
REMARK  222  A    between atoms: _551  and  _552
REMARK  223  A    between atoms: _551  and  _554
REMARK  224  A    between atoms: _554  and  _555
REMARK  225  A    between atoms: _555  and  _556
REMARK  226  A    between atoms: _556  and  _557
REMARK  227  A    between atoms: _566  and  _568
REMARK  228  A    between atoms: _568  and  _569
REMARK  229  A    between atoms: _568  and  _571
REMARK  230  A    between atoms: _571  and  _572
REMARK                            x       y       z     vdW  Elec       q    Type
REMARK                         _______ _______ _______ _____ _____    ______ ____
ROOT
ATOM      1  O   HOH     1      15.796  39.917  18.056  0.00  0.00    +0.000 OA
ENDROOT
TORSDOF 0
REMARK  Name = ../refined-set-2016/3o9i/3o9i_pocket.pdb
REMARK  230 active torsions:
REMARK  status: ('A' for Active; 'I' for Inactive)
REMARK    1  A    between atoms: _1  and  _3
REMARK    2  A    between atoms: _3  and  _4
REMARK    3  A    between atoms: _3  and  _6
REMARK    4  A    between atoms: _6  and  _7
REMARK    5  A    between atoms: _7  and  _8
REMARK    6  A    between atoms: _8  and  _9
REMARK    7  A    between atoms: _18  and  _20
REMARK    8  A    between atoms: _20  and  _21
REMARK    9  A    between atoms: _20  and  _23
REMARK   10  A    between atoms: _23  and  _24
REMARK   11  A    between atoms: _27  and  _29
REMARK   12  A    between atoms: _29  and  _30
REMARK   13  A    between atoms: _29  and  _32
REMARK   14  A    between atoms: _32  and  _33
REMARK   15  A    between atoms: _36  and  _38
REMARK   16  A    between atoms: _38  and  _39
REMARK   17  A    between atoms: _38  and  _41
REMARK   18  A    between atoms: _41  and  _42
REMARK   19  A    between atoms: _45  and  _47
REMARK   20  A    between atoms: _47  and  _48
REMARK   21  A    between atoms: _47  and  _50
REMARK   22  A    between atoms: _50  and  _51
REMARK   23  A    between atoms: _54  and  _56
REMARK   24  A    between atoms: _56  and  _57
REMARK   25  A    between atoms: _56  and  _59
REMARK   26  A    between atoms: _59  and  _60
REMARK   27  A    between atoms: _63  and  _65
REMARK   28  A    between atoms: _65  and  _66
REMARK   29  A    between atoms: _68  and  _70
REMARK   30  A    between atoms: _70  and  _71
REMARK   31  A    between atoms: _74  and  _76
REMARK   32  A    between atoms: _76  and  _77
REMARK   33  A    between atoms: _76  and  _79
REMARK   34  A    between atoms: _79  and  _80
REMARK   35  A    between atoms: _83  and  _85
REMARK   36  A    between atoms: _85  and  _86
REMARK   37  A    between atoms: _85  and  _88
REMARK   38  A    between atoms: _88  and  _89
REMARK   39  A    between atoms: _92  and  _94
REMARK   40  A    between atoms: _94  and  _95
REMARK   41  A    between atoms: _94  and  _97
REMARK   42  A    between atoms: _97  and  _98
REMARK   43  A    between atoms: _101  and  _103
REMARK   44  A    between atoms: _103  and  _104
REMARK   45  A    between atoms: _103  and  _106
REMARK   46  A    between atoms: _109  and  _111
REMARK   47  A    between atoms: _111  and  _112
REMARK   48  A    between atoms: _111  and  _114
REMARK   49  A    between atoms: _114  and  _115
REMARK   50  A    between atoms: _118  and  _120
REMARK   51  A    between atoms: _120  and  _121
REMARK   52  A    between atoms: _123  and  _125
REMARK   53  A    between atoms: _125  and  _126
REMARK   54  A    between atoms: _128  and  _130
REMARK   55  A    between atoms: _130  and  _131
REMARK   56  A    between atoms: _130  and  _133
REMARK   57  A    between atoms: _133  and  _134
REMARK   58  A    between atoms: _137  and  _139
REMARK   59  A    between atoms: _139  and  _140
REMARK   60  A    between atoms: _142  and  _144
REMARK   61  A    between atoms: _144  and  _145
REMARK   62  A    between atoms: _147  and  _149
REMARK   63  A    between atoms: _149  and  _150
REMARK   64  A    between atoms: _149  and  _152
REMARK   65  A    between atoms: _152  and  _153
REMARK   66  A    between atoms: _159  and  _161
REMARK   67  A    between atoms: _161  and  _162
REMARK   68  A    between atoms: _161  and  _164
REMARK   69  A    between atoms: _164  and  _165
REMARK   70  A    between atoms: _168  and  _170
REMARK   71  A    between atoms: _170  and  _171
REMARK   72  A    between atoms: _170  and  _173
REMARK   73  A    between atoms: _176  and  _178
REMARK   74  A    between atoms: _178  and  _179
REMARK   75  A    between atoms: _178  and  _181
REMARK   76  A    between atoms: _181  and  _182
REMARK   77  A    between atoms: _186  and  _187
REMARK   78  A    between atoms: _192  and  _194
REMARK   79  A    between atoms: _194  and  _195
REMARK   80  A    between atoms: _194  and  _197
REMARK   81  A    between atoms: _197  and  _198
REMARK   82  A    between atoms: _202  and  _203
REMARK   83  A    between atoms: _208  and  _210
REMARK   84  A    between atoms: _210  and  _211
REMARK   85  A    between atoms: _210  and  _213
REMARK   86  A    between atoms: _216  and  _218
REMARK   87  A    between atoms: _218  and  _219
REMARK   88  A    between atoms: _218  and  _221
REMARK   89  A    between atoms: _221  and  _222
REMARK   90  A    between atoms: _227  and  _229
REMARK   91  A    between atoms: _229  and  _230
REMARK   92  A    between atoms: _229  and  _232
REMARK   93  A    between atoms: _232  and  _233
REMARK   94  A    between atoms: _236  and  _238
REMARK   95  A    between atoms: _238  and  _239
REMARK   96  A    between atoms: _238  and  _241
REMARK   97  A    between atoms: _241  and  _242
REMARK   98  A    between atoms: _245  and  _247
REMARK   99  A    between atoms: _247  and  _248
REMARK  100  A    between atoms: _250  and  _252
REMARK  101  A    between atoms: _252  and  _253
REMARK  102  A    between atoms: _252  and  _255
REMARK  103  A    between atoms: _255  and  _256
REMARK  104  A    between atoms: _256  and  _257
REMARK  105  A    between atoms: _257  and  _258
REMARK  106  A    between atoms: _267  and  _269
REMARK  107  A    between atoms: _269  and  _270
REMARK  108  A    between atoms: _269  and  _272
REMARK  109  A    between atoms: _272  and  _273
REMARK  110  A    between atoms: _278  and  _280
REMARK  111  A    between atoms: _280  and  _281
REMARK  112  A    between atoms: _280  and  _283
REMARK  113  A    between atoms: _283  and  _284
REMARK  114  A    between atoms: _284  and  _285
REMARK  115  A    between atoms: _285  and  _286
REMARK  116  A    between atoms: _296  and  _297
REMARK  117  A    between atoms: _302  and  _304
REMARK  118  A    between atoms: _304  and  _305
REMARK  119  A    between atoms: _304  and  _307
REMARK  120  A    between atoms: _307  and  _308
REMARK  121  A    between atoms: _311  and  _313
REMARK  122  A    between atoms: _313  and  _314
REMARK  123  A    between atoms: _313  and  _316
REMARK  124  A    between atoms: _316  and  _317
REMARK  125  A    between atoms: _320  and  _322
REMARK  126  A    between atoms: _322  and  _323
REMARK  127  A    between atoms: _322  and  _325
REMARK  128  A    between atoms: _325  and  _326
REMARK  129  A    between atoms: _329  and  _331
REMARK  130  A    between atoms: _331  and  _332
REMARK  131  A    between atoms: _331  and  _334
REMARK  132  A    between atoms: _334  and  _335
REMARK  133  A    between atoms: _338  and  _340
REMARK  134  A    between atoms: _340  and  _341
REMARK  135  A    between atoms: _340  and  _343
REMARK  136  A    between atoms: _343  and  _344
REMARK  137  A    between atoms: _347  and  _349
REMARK  138  A    between atoms: _349  and  _350
REMARK  139  A    between atoms: _352  and  _354
REMARK  140  A    between atoms: _354  and  _355
REMARK  141  A    between atoms: _358  and  _360
REMARK  142  A    between atoms: _360  and  _361
REMARK  143  A    between atoms: _360  and  _363
REMARK  144  A    between atoms: _363  and  _364
REMARK  145  A    between atoms: _367  and  _369
REMARK  146  A    between atoms: _369  and  _370
REMARK  147  A    between atoms: _369  and  _372
REMARK  148  A    between atoms: _372  and  _373
REMARK  149  A    between atoms: _376  and  _378
REMARK  150  A    between atoms: _378  and  _379
REMARK  151  A    between atoms: _378  and  _381
REMARK  152  A    between atoms: _381  and  _382
REMARK  153  A    between atoms: _385  and  _387
REMARK  154  A    between atoms: _387  and  _388
REMARK  155  A    between atoms: _387  and  _390
REMARK  156  A    between atoms: _393  and  _395
REMARK  157  A    between atoms: _395  and  _396
REMARK  158  A    between atoms: _395  and  _398
REMARK  159  A    between atoms: _398  and  _399
REMARK  160  A    between atoms: _399  and  _400
REMARK  161  A    between atoms: _400  and  _401
REMARK  162  A    between atoms: _401  and  _402
REMARK  163  A    between atoms: _406  and  _408
REMARK  164  A    between atoms: _408  and  _409
REMARK  165  A    between atoms: _408  and  _411
REMARK  166  A    between atoms: _411  and  _412
REMARK  167  A    between atoms: _412  and  _413
REMARK  168  A    between atoms: _415  and  _417
REMARK  169  A    between atoms: _417  and  _418
REMARK  170  A    between atoms: _417  and  _420
REMARK  171  A    between atoms: _420  and  _421
REMARK  172  A    between atoms: _424  and  _426
REMARK  173  A    between atoms: _426  and  _427
REMARK  174  A    between atoms: _429  and  _431
REMARK  175  A    between atoms: _431  and  _432
REMARK  176  A    between atoms: _434  and  _436
REMARK  177  A    between atoms: _436  and  _437
REMARK  178  A    between atoms: _436  and  _439
REMARK  179  A    between atoms: _439  and  _440
REMARK  180  A    between atoms: _443  and  _445
REMARK  181  A    between atoms: _445  and  _446
REMARK  182  A    between atoms: _448  and  _450
REMARK  183  A    between atoms: _450  and  _451
REMARK  184  A    between atoms: _453  and  _455
REMARK  185  A    between atoms: _455  and  _456
REMARK  186  A    between atoms: _455  and  _458
REMARK  187  A    between atoms: _458  and  _459
REMARK  188  A    between atoms: _465  and  _467
REMARK  189  A    between atoms: _467  and  _468
REMARK  190  A    between atoms: _467  and  _470
REMARK  191  A    between atoms: _470  and  _471
REMARK  192  A    between atoms: _474  and  _476
REMARK  193  A    between atoms: _476  and  _477
REMARK  194  A    between atoms: _476  and  _479
REMARK  195  A    between atoms: _482  and  _484
REMARK  196  A    between atoms: _484  and  _485
REMARK  197  A    between atoms: _484  and  _487
REMARK  198  A    between atoms: _487  and  _488
REMARK  199  A    between atoms: _491  and  _493
REMARK  200  A    between atoms: _493  and  _494
REMARK  201  A    between atoms: _493  and  _496
REMARK  202  A    between atoms: _496  and  _497
REMARK  203  A    between atoms: _501  and  _502
REMARK  204  A    between atoms: _507  and  _509
REMARK  205  A    between atoms: _509  and  _510
REMARK  206  A    between atoms: _509  and  _512
REMARK  207  A    between atoms: _515  and  _517
REMARK  208  A    between atoms: _517  and  _518
REMARK  209  A    between atoms: _517  and  _520
REMARK  210  A    between atoms: _520  and  _521
REMARK  211  A    between atoms: _526  and  _528
REMARK  212  A    between atoms: _528  and  _529
REMARK  213  A    between atoms: _528  and  _531
REMARK  214  A    between atoms: _531  and  _532
REMARK  215  A    between atoms: _535  and  _537
REMARK  216  A    between atoms: _537  and  _538
REMARK  217  A    between atoms: _537  and  _540
REMARK  218  A    between atoms: _540  and  _541
REMARK  219  A    between atoms: _544  and  _546
REMARK  220  A    between atoms: _546  and  _547
REMARK  221  A    between atoms: _549  and  _551
REMARK  222  A    between atoms: _551  and  _552
REMARK  223  A    between atoms: _551  and  _554
REMARK  224  A    between atoms: _554  and  _555
REMARK  225  A    between atoms: _555  and  _556
REMARK  226  A    between atoms: _556  and  _557
REMARK  227  A    between atoms: _566  and  _568
REMARK  228  A    between atoms: _568  and  _569
REMARK  229  A    between atoms: _568  and  _571
REMARK  230  A    between atoms: _571  and  _572
REMARK                            x       y       z     vdW  Elec       q    Type
REMARK                         _______ _______ _______ _____ _____    ______ ____
ROOT
ATOM      1  O   HOH     1      15.441  42.832  16.502  0.00  0.00    +0.000 OA
ENDROOT
TORSDOF 0
REMARK  Name = ../refined-set-2016/3o9i/3o9i_pocket.pdb
REMARK  230 active torsions:
REMARK  status: ('A' for Active; 'I' for Inactive)
REMARK    1  A    between atoms: _1  and  _3
REMARK    2  A    between atoms: _3  and  _4
REMARK    3  A    between atoms: _3  and  _6
REMARK    4  A    between atoms: _6  and  _7
REMARK    5  A    between atoms: _7  and  _8
REMARK    6  A    between atoms: _8  and  _9
REMARK    7  A    between atoms: _18  and  _20
REMARK    8  A    between atoms: _20  and  _21
REMARK    9  A    between atoms: _20  and  _23
REMARK   10  A    between atoms: _23  and  _24
REMARK   11  A    between atoms: _27  and  _29
REMARK   12  A    between atoms: _29  and  _30
REMARK   13  A    between atoms: _29  and  _32
REMARK   14  A    between atoms: _32  and  _33
REMARK   15  A    between atoms: _36  and  _38
REMARK   16  A    between atoms: _38  and  _39
REMARK   17  A    between atoms: _38  and  _41
REMARK   18  A    between atoms: _41  and  _42
REMARK   19  A    between atoms: _45  and  _47
REMARK   20  A    between atoms: _47  and  _48
REMARK   21  A    between atoms: _47  and  _50
REMARK   22  A    between atoms: _50  and  _51
REMARK   23  A    between atoms: _54  and  _56
REMARK   24  A    between atoms: _56  and  _57
REMARK   25  A    between atoms: _56  and  _59
REMARK   26  A    between atoms: _59  and  _60
REMARK   27  A    between atoms: _63  and  _65
REMARK   28  A    between atoms: _65  and  _66
REMARK   29  A    between atoms: _68  and  _70
REMARK   30  A    between atoms: _70  and  _71
REMARK   31  A    between atoms: _74  and  _76
REMARK   32  A    between atoms: _76  and  _77
REMARK   33  A    between atoms: _76  and  _79
REMARK   34  A    between atoms: _79  and  _80
REMARK   35  A    between atoms: _83  and  _85
REMARK   36  A    between atoms: _85  and  _86
REMARK   37  A    between atoms: _85  and  _88
REMARK   38  A    between atoms: _88  and  _89
REMARK   39  A    between atoms: _92  and  _94
REMARK   40  A    between atoms: _94  and  _95
REMARK   41  A    between atoms: _94  and  _97
REMARK   42  A    between atoms: _97  and  _98
REMARK   43  A    between atoms: _101  and  _103
REMARK   44  A    between atoms: _103  and  _104
REMARK   45  A    between atoms: _103  and  _106
REMARK   46  A    between atoms: _109  and  _111
REMARK   47  A    between atoms: _111  and  _112
REMARK   48  A    between atoms: _111  and  _114
REMARK   49  A    between atoms: _114  and  _115
REMARK   50  A    between atoms: _118  and  _120
REMARK   51  A    between atoms: _120  and  _121
REMARK   52  A    between atoms: _123  and  _125
REMARK   53  A    between atoms: _125  and  _126
REMARK   54  A    between atoms: _128  and  _130
REMARK   55  A    between atoms: _130  and  _131
REMARK   56  A    between atoms: _130  and  _133
REMARK   57  A    between atoms: _133  and  _134
REMARK   58  A    between atoms: _137  and  _139
REMARK   59  A    between atoms: _139  and  _140
REMARK   60  A    between atoms: _142  and  _144
REMARK   61  A    between atoms: _144  and  _145
REMARK   62  A    between atoms: _147  and  _149
REMARK   63  A    between atoms: _149  and  _150
REMARK   64  A    between atoms: _149  and  _152
REMARK   65  A    between atoms: _152  and  _153
REMARK   66  A    between atoms: _159  and  _161
REMARK   67  A    between atoms: _161  and  _162
REMARK   68  A    between atoms: _161  and  _164
REMARK   69  A    between atoms: _164  and  _165
REMARK   70  A    between atoms: _168  and  _170
REMARK   71  A    between atoms: _170  and  _171
REMARK   72  A    between atoms: _170  and  _173
REMARK   73  A    between atoms: _176  and  _178
REMARK   74  A    between atoms: _178  and  _179
REMARK   75  A    between atoms: _178  and  _181
REMARK   76  A    between atoms: _181  and  _182
REMARK   77  A    between atoms: _186  and  _187
REMARK   78  A    between atoms: _192  and  _194
REMARK   79  A    between atoms: _194  and  _195
REMARK   80  A    between atoms: _194  and  _197
REMARK   81  A    between atoms: _197  and  _198
REMARK   82  A    between atoms: _202  and  _203
REMARK   83  A    between atoms: _208  and  _210
REMARK   84  A    between atoms: _210  and  _211
REMARK   85  A    between atoms: _210  and  _213
REMARK   86  A    between atoms: _216  and  _218
REMARK   87  A    between atoms: _218  and  _219
REMARK   88  A    between atoms: _218  and  _221
REMARK   89  A    between atoms: _221  and  _222
REMARK   90  A    between atoms: _227  and  _229
REMARK   91  A    between atoms: _229  and  _230
REMARK   92  A    between atoms: _229  and  _232
REMARK   93  A    between atoms: _232  and  _233
REMARK   94  A    between atoms: _236  and  _238
REMARK   95  A    between atoms: _238  and  _239
REMARK   96  A    between atoms: _238  and  _241
REMARK   97  A    between atoms: _241  and  _242
REMARK   98  A    between atoms: _245  and  _247
REMARK   99  A    between atoms: _247  and  _248
REMARK  100  A    between atoms: _250  and  _252
REMARK  101  A    between atoms: _252  and  _253
REMARK  102  A    between atoms: _252  and  _255
REMARK  103  A    between atoms: _255  and  _256
REMARK  104  A    between atoms: _256  and  _257
REMARK  105  A    between atoms: _257  and  _258
REMARK  106  A    between atoms: _267  and  _269
REMARK  107  A    between atoms: _269  and  _270
REMARK  108  A    between atoms: _269  and  _272
REMARK  109  A    between atoms: _272  and  _273
REMARK  110  A    between atoms: _278  and  _280
REMARK  111  A    between atoms: _280  and  _281
REMARK  112  A    between atoms: _280  and  _283
REMARK  113  A    between atoms: _283  and  _284
REMARK  114  A    between atoms: _284  and  _285
REMARK  115  A    between atoms: _285  and  _286
REMARK  116  A    between atoms: _296  and  _297
REMARK  117  A    between atoms: _302  and  _304
REMARK  118  A    between atoms: _304  and  _305
REMARK  119  A    between atoms: _304  and  _307
REMARK  120  A    between atoms: _307  and  _308
REMARK  121  A    between atoms: _311  and  _313
REMARK  122  A    between atoms: _313  and  _314
REMARK  123  A    between atoms: _313  and  _316
REMARK  124  A    between atoms: _316  and  _317
REMARK  125  A    between atoms: _320  and  _322
REMARK  126  A    between atoms: _322  and  _323
REMARK  127  A    between atoms: _322  and  _325
REMARK  128  A    between atoms: _325  and  _326
REMARK  129  A    between atoms: _329  and  _331
REMARK  130  A    between atoms: _331  and  _332
REMARK  131  A    between atoms: _331  and  _334
REMARK  132  A    between atoms: _334  and  _335
REMARK  133  A    between atoms: _338  and  _340
REMARK  134  A    between atoms: _340  and  _341
REMARK  135  A    between atoms: _340  and  _343
REMARK  136  A    between atoms: _343  and  _344
REMARK  137  A    between atoms: _347  and  _349
REMARK  138  A    between atoms: _349  and  _350
REMARK  139  A    between atoms: _352  and  _354
REMARK  140  A    between atoms: _354  and  _355
REMARK  141  A    between atoms: _358  and  _360
REMARK  142  A    between atoms: _360  and  _361
REMARK  143  A    between atoms: _360  and  _363
REMARK  144  A    between atoms: _363  and  _364
REMARK  145  A    between atoms: _367  and  _369
REMARK  146  A    between atoms: _369  and  _370
REMARK  147  A    between atoms: _369  and  _372
REMARK  148  A    between atoms: _372  and  _373
REMARK  149  A    between atoms: _376  and  _378
REMARK  150  A    between atoms: _378  and  _379
REMARK  151  A    between atoms: _378  and  _381
REMARK  152  A    between atoms: _381  and  _382
REMARK  153  A    between atoms: _385  and  _387
REMARK  154  A    between atoms: _387  and  _388
REMARK  155  A    between atoms: _387  and  _390
REMARK  156  A    between atoms: _393  and  _395
REMARK  157  A    between atoms: _395  and  _396
REMARK  158  A    between atoms: _395  and  _398
REMARK  159  A    between atoms: _398  and  _399
REMARK  160  A    between atoms: _399  and  _400
REMARK  161  A    between atoms: _400  and  _401
REMARK  162  A    between atoms: _401  and  _402
REMARK  163  A    between atoms: _406  and  _408
REMARK  164  A    between atoms: _408  and  _409
REMARK  165  A    between atoms: _408  and  _411
REMARK  166  A    between atoms: _411  and  _412
REMARK  167  A    between atoms: _412  and  _413
REMARK  168  A    between atoms: _415  and  _417
REMARK  169  A    between atoms: _417  and  _418
REMARK  170  A    between atoms: _417  and  _420
REMARK  171  A    between atoms: _420  and  _421
REMARK  172  A    between atoms: _424  and  _426
REMARK  173  A    between atoms: _426  and  _427
REMARK  174  A    between atoms: _429  and  _431
REMARK  175  A    between atoms: _431  and  _432
REMARK  176  A    between atoms: _434  and  _436
REMARK  177  A    between atoms: _436  and  _437
REMARK  178  A    between atoms: _436  and  _439
REMARK  179  A    between atoms: _439  and  _440
REMARK  180  A    between atoms: _443  and  _445
REMARK  181  A    between atoms: _445  and  _446
REMARK  182  A    between atoms: _448  and  _450
REMARK  183  A    between atoms: _450  and  _451
REMARK  184  A    between atoms: _453  and  _455
REMARK  185  A    between atoms: _455  and  _456
REMARK  186  A    between atoms: _455  and  _458
REMARK  187  A    between atoms: _458  and  _459
REMARK  188  A    between atoms: _465  and  _467
REMARK  189  A    between atoms: _467  and  _468
REMARK  190  A    between atoms: _467  and  _470
REMARK  191  A    between atoms: _470  and  _471
REMARK  192  A    between atoms: _474  and  _476
REMARK  193  A    between atoms: _476  and  _477
REMARK  194  A    between atoms: _476  and  _479
REMARK  195  A    between atoms: _482  and  _484
REMARK  196  A    between atoms: _484  and  _485
REMARK  197  A    between atoms: _484  and  _487
REMARK  198  A    between atoms: _487  and  _488
REMARK  199  A    between atoms: _491  and  _493
REMARK  200  A    between atoms: _493  and  _494
REMARK  201  A    between atoms: _493  and  _496
REMARK  202  A    between atoms: _496  and  _497
REMARK  203  A    between atoms: _501  and  _502
REMARK  204  A    between atoms: _507  and  _509
REMARK  205  A    between atoms: _509  and  _510
REMARK  206  A    between atoms: _509  and  _512
REMARK  207  A    between atoms: _515  and  _517
REMARK  208  A    between atoms: _517  and  _518
REMARK  209  A    between atoms: _517  and  _520
REMARK  210  A    between atoms: _520  and  _521
REMARK  211  A    between atoms: _526  and  _528
REMARK  212  A    between atoms: _528  and  _529
REMARK  213  A    between atoms: _528  and  _531
REMARK  214  A    between atoms: _531  and  _532
REMARK  215  A    between atoms: _535  and  _537
REMARK  216  A    between atoms: _537  and  _538
REMARK  217  A    between atoms: _537  and  _540
REMARK  218  A    between atoms: _540  and  _541
REMARK  219  A    between atoms: _544  and  _546
REMARK  220  A    between atoms: _546  and  _547
REMARK  221  A    between atoms: _549  and  _551
REMARK  222  A    between atoms: _551  and  _552
REMARK  223  A    between atoms: _551  and  _554
REMARK  224  A    between atoms: _554  and  _555
REMARK  225  A    between atoms: _555  and  _556
REMARK  226  A    between atoms: _556  and  _557
REMARK  227  A    between atoms: _566  and  _568
REMARK  228  A    between atoms: _568  and  _569
REMARK  229  A    between atoms: _568  and  _571
REMARK  230  A    between atoms: _571  and  _572
REMARK                            x       y       z     vdW  Elec       q    Type
REMARK                         _______ _______ _______ _____ _____    ______ ____
ROOT
ATOM      1  O   HOH     1      17.694  39.970  16.059  0.00  0.00    +0.000 OA
ENDROOT
TORSDOF 0
REMARK  Name = ../refined-set-2016/3o9i/3o9i_pocket.pdb
REMARK  230 active torsions:
REMARK  status: ('A' for Active; 'I' for Inactive)
REMARK    1  A    between atoms: _1  and  _3
REMARK    2  A    between atoms: _3  and  _4
REMARK    3  A    between atoms: _3  and  _6
REMARK    4  A    between atoms: _6  and  _7
REMARK    5  A    between atoms: _7  and  _8
REMARK    6  A    between atoms: _8  and  _9
REMARK    7  A    between atoms: _18  and  _20
REMARK    8  A    between atoms: _20  and  _21
REMARK    9  A    between atoms: _20  and  _23
REMARK   10  A    between atoms: _23  and  _24
REMARK   11  A    between atoms: _27  and  _29
REMARK   12  A    between atoms: _29  and  _30
REMARK   13  A    between atoms: _29  and  _32
REMARK   14  A    between atoms: _32  and  _33
REMARK   15  A    between atoms: _36  and  _38
REMARK   16  A    between atoms: _38  and  _39
REMARK   17  A    between atoms: _38  and  _41
REMARK   18  A    between atoms: _41  and  _42
REMARK   19  A    between atoms: _45  and  _47
REMARK   20  A    between atoms: _47  and  _48
REMARK   21  A    between atoms: _47  and  _50
REMARK   22  A    between atoms: _50  and  _51
REMARK   23  A    between atoms: _54  and  _56
REMARK   24  A    between atoms: _56  and  _57
REMARK   25  A    between atoms: _56  and  _59
REMARK   26  A    between atoms: _59  and  _60
REMARK   27  A    between atoms: _63  and  _65
REMARK   28  A    between atoms: _65  and  _66
REMARK   29  A    between atoms: _68  and  _70
REMARK   30  A    between atoms: _70  and  _71
REMARK   31  A    between atoms: _74  and  _76
REMARK   32  A    between atoms: _76  and  _77
REMARK   33  A    between atoms: _76  and  _79
REMARK   34  A    between atoms: _79  and  _80
REMARK   35  A    between atoms: _83  and  _85
REMARK   36  A    between atoms: _85  and  _86
REMARK   37  A    between atoms: _85  and  _88
REMARK   38  A    between atoms: _88  and  _89
REMARK   39  A    between atoms: _92  and  _94
REMARK   40  A    between atoms: _94  and  _95
REMARK   41  A    between atoms: _94  and  _97
REMARK   42  A    between atoms: _97  and  _98
REMARK   43  A    between atoms: _101  and  _103
REMARK   44  A    between atoms: _103  and  _104
REMARK   45  A    between atoms: _103  and  _106
REMARK   46  A    between atoms: _109  and  _111
REMARK   47  A    between atoms: _111  and  _112
REMARK   48  A    between atoms: _111  and  _114
REMARK   49  A    between atoms: _114  and  _115
REMARK   50  A    between atoms: _118  and  _120
REMARK   51  A    between atoms: _120  and  _121
REMARK   52  A    between atoms: _123  and  _125
REMARK   53  A    between atoms: _125  and  _126
REMARK   54  A    between atoms: _128  and  _130
REMARK   55  A    between atoms: _130  and  _131
REMARK   56  A    between atoms: _130  and  _133
REMARK   57  A    between atoms: _133  and  _134
REMARK   58  A    between atoms: _137  and  _139
REMARK   59  A    between atoms: _139  and  _140
REMARK   60  A    between atoms: _142  and  _144
REMARK   61  A    between atoms: _144  and  _145
REMARK   62  A    between atoms: _147  and  _149
REMARK   63  A    between atoms: _149  and  _150
REMARK   64  A    between atoms: _149  and  _152
REMARK   65  A    between atoms: _152  and  _153
REMARK   66  A    between atoms: _159  and  _161
REMARK   67  A    between atoms: _161  and  _162
REMARK   68  A    between atoms: _161  and  _164
REMARK   69  A    between atoms: _164  and  _165
REMARK   70  A    between atoms: _168  and  _170
REMARK   71  A    between atoms: _170  and  _171
REMARK   72  A    between atoms: _170  and  _173
REMARK   73  A    between atoms: _176  and  _178
REMARK   74  A    between atoms: _178  and  _179
REMARK   75  A    between atoms: _178  and  _181
REMARK   76  A    between atoms: _181  and  _182
REMARK   77  A    between atoms: _186  and  _187
REMARK   78  A    between atoms: _192  and  _194
REMARK   79  A    between atoms: _194  and  _195
REMARK   80  A    between atoms: _194  and  _197
REMARK   81  A    between atoms: _197  and  _198
REMARK   82  A    between atoms: _202  and  _203
REMARK   83  A    between atoms: _208  and  _210
REMARK   84  A    between atoms: _210  and  _211
REMARK   85  A    between atoms: _210  and  _213
REMARK   86  A    between atoms: _216  and  _218
REMARK   87  A    between atoms: _218  and  _219
REMARK   88  A    between atoms: _218  and  _221
REMARK   89  A    between atoms: _221  and  _222
REMARK   90  A    between atoms: _227  and  _229
REMARK   91  A    between atoms: _229  and  _230
REMARK   92  A    between atoms: _229  and  _232
REMARK   93  A    between atoms: _232  and  _233
REMARK   94  A    between atoms: _236  and  _238
REMARK   95  A    between atoms: _238  and  _239
REMARK   96  A    between atoms: _238  and  _241
REMARK   97  A    between atoms: _241  and  _242
REMARK   98  A    between atoms: _245  and  _247
REMARK   99  A    between atoms: _247  and  _248
REMARK  100  A    between atoms: _250  and  _252
REMARK  101  A    between atoms: _252  and  _253
REMARK  102  A    between atoms: _252  and  _255
REMARK  103  A    between atoms: _255  and  _256
REMARK  104  A    between atoms: _256  and  _257
REMARK  105  A    between atoms: _257  and  _258
REMARK  106  A    between atoms: _267  and  _269
REMARK  107  A    between atoms: _269  and  _270
REMARK  108  A    between atoms: _269  and  _272
REMARK  109  A    between atoms: _272  and  _273
REMARK  110  A    between atoms: _278  and  _280
REMARK  111  A    between atoms: _280  and  _281
REMARK  112  A    between atoms: _280  and  _283
REMARK  113  A    between atoms: _283  and  _284
REMARK  114  A    between atoms: _284  and  _285
REMARK  115  A    between atoms: _285  and  _286
REMARK  116  A    between atoms: _296  and  _297
REMARK  117  A    between atoms: _302  and  _304
REMARK  118  A    between atoms: _304  and  _305
REMARK  119  A    between atoms: _304  and  _307
REMARK  120  A    between atoms: _307  and  _308
REMARK  121  A    between atoms: _311  and  _313
REMARK  122  A    between atoms: _313  and  _314
REMARK  123  A    between atoms: _313  and  _316
REMARK  124  A    between atoms: _316  and  _317
REMARK  125  A    between atoms: _320  and  _322
REMARK  126  A    between atoms: _322  and  _323
REMARK  127  A    between atoms: _322  and  _325
REMARK  128  A    between atoms: _325  and  _326
REMARK  129  A    between atoms: _329  and  _331
REMARK  130  A    between atoms: _331  and  _332
REMARK  131  A    between atoms: _331  and  _334
REMARK  132  A    between atoms: _334  and  _335
REMARK  133  A    between atoms: _338  and  _340
REMARK  134  A    between atoms: _340  and  _341
REMARK  135  A    between atoms: _340  and  _343
REMARK  136  A    between atoms: _343  and  _344
REMARK  137  A    between atoms: _347  and  _349
REMARK  138  A    between atoms: _349  and  _350
REMARK  139  A    between atoms: _352  and  _354
REMARK  140  A    between atoms: _354  and  _355
REMARK  141  A    between atoms: _358  and  _360
REMARK  142  A    between atoms: _360  and  _361
REMARK  143  A    between atoms: _360  and  _363
REMARK  144  A    between atoms: _363  and  _364
REMARK  145  A    between atoms: _367  and  _369
REMARK  146  A    between atoms: _369  and  _370
REMARK  147  A    between atoms: _369  and  _372
REMARK  148  A    between atoms: _372  and  _373
REMARK  149  A    between atoms: _376  and  _378
REMARK  150  A    between atoms: _378  and  _379
REMARK  151  A    between atoms: _378  and  _381
REMARK  152  A    between atoms: _381  and  _382
REMARK  153  A    between atoms: _385  and  _387
REMARK  154  A    between atoms: _387  and  _388
REMARK  155  A    between atoms: _387  and  _390
REMARK  156  A    between atoms: _393  and  _395
REMARK  157  A    between atoms: _395  and  _396
REMARK  158  A    between atoms: _395  and  _398
REMARK  159  A    between atoms: _398  and  _399
REMARK  160  A    between atoms: _399  and  _400
REMARK  161  A    between atoms: _400  and  _401
REMARK  162  A    between atoms: _401  and  _402
REMARK  163  A    between atoms: _406  and  _408
REMARK  164  A    between atoms: _408  and  _409
REMARK  165  A    between atoms: _408  and  _411
REMARK  166  A    between atoms: _411  and  _412
REMARK  167  A    between atoms: _412  and  _413
REMARK  168  A    between atoms: _415  and  _417
REMARK  169  A    between atoms: _417  and  _418
REMARK  170  A    between atoms: _417  and  _420
REMARK  171  A    between atoms: _420  and  _421
REMARK  172  A    between atoms: _424  and  _426
REMARK  173  A    between atoms: _426  and  _427
REMARK  174  A    between atoms: _429  and  _431
REMARK  175  A    between atoms: _431  and  _432
REMARK  176  A    between atoms: _434  and  _436
REMARK  177  A    between atoms: _436  and  _437
REMARK  178  A    between atoms: _436  and  _439
REMARK  179  A    between atoms: _439  and  _440
REMARK  180  A    between atoms: _443  and  _445
REMARK  181  A    between atoms: _445  and  _446
REMARK  182  A    between atoms: _448  and  _450
REMARK  183  A    between atoms: _450  and  _451
REMARK  184  A    between atoms: _453  and  _455
REMARK  185  A    between atoms: _455  and  _456
REMARK  186  A    between atoms: _455  and  _458
REMARK  187  A    between atoms: _458  and  _459
REMARK  188  A    between atoms: _465  and  _467
REMARK  189  A    between atoms: _467  and  _468
REMARK  190  A    between atoms: _467  and  _470
REMARK  191  A    between atoms: _470  and  _471
REMARK  192  A    between atoms: _474  and  _476
REMARK  193  A    between atoms: _476  and  _477
REMARK  194  A    between atoms: _476  and  _479
REMARK  195  A    between atoms: _482  and  _484
REMARK  196  A    between atoms: _484  and  _485
REMARK  197  A    between atoms: _484  and  _487
REMARK  198  A    between atoms: _487  and  _488
REMARK  199  A    between atoms: _491  and  _493
REMARK  200  A    between atoms: _493  and  _494
REMARK  201  A    between atoms: _493  and  _496
REMARK  202  A    between atoms: _496  and  _497
REMARK  203  A    between atoms: _501  and  _502
REMARK  204  A    between atoms: _507  and  _509
REMARK  205  A    between atoms: _509  and  _510
REMARK  206  A    between atoms: _509  and  _512
REMARK  207  A    between atoms: _515  and  _517
REMARK  208  A    between atoms: _517  and  _518
REMARK  209  A    between atoms: _517  and  _520
REMARK  210  A    between atoms: _520  and  _521
REMARK  211  A    between atoms: _526  and  _528
REMARK  212  A    between atoms: _528  and  _529
REMARK  213  A    between atoms: _528  and  _531
REMARK  214  A    between atoms: _531  and  _532
REMARK  215  A    between atoms: _535  and  _537
REMARK  216  A    between atoms: _537  and  _538
REMARK  217  A    between atoms: _537  and  _540
REMARK  218  A    between atoms: _540  and  _541
REMARK  219  A    between atoms: _544  and  _546
REMARK  220  A    between atoms: _546  and  _547
REMARK  221  A    between atoms: _549  and  _551
REMARK  222  A    between atoms: _551  and  _552
REMARK  223  A    between atoms: _551  and  _554
REMARK  224  A    between atoms: _554  and  _555
REMARK  225  A    between atoms: _555  and  _556
REMARK  226  A    between atoms: _556  and  _557
REMARK  227  A    between atoms: _566  and  _568
REMARK  228  A    between atoms: _568  and  _569
REMARK  229  A    between atoms: _568  and  _571
REMARK  230  A    between atoms: _571  and  _572
REMARK                            x       y       z     vdW  Elec       q    Type
REMARK                         _______ _______ _______ _____ _____    ______ ____
ROOT
ATOM      1  O   HOH     1       9.976  36.350  23.692  0.00  0.00    +0.000 OA
ENDROOT
TORSDOF 0
REMARK  Name = ../refined-set-2016/3o9i/3o9i_pocket.pdb
REMARK  230 active torsions:
REMARK  status: ('A' for Active; 'I' for Inactive)
REMARK    1  A    between atoms: _1  and  _3
REMARK    2  A    between atoms: _3  and  _4
REMARK    3  A    between atoms: _3  and  _6
REMARK    4  A    between atoms: _6  and  _7
REMARK    5  A    between atoms: _7  and  _8
REMARK    6  A    between atoms: _8  and  _9
REMARK    7  A    between atoms: _18  and  _20
REMARK    8  A    between atoms: _20  and  _21
REMARK    9  A    between atoms: _20  and  _23
REMARK   10  A    between atoms: _23  and  _24
REMARK   11  A    between atoms: _27  and  _29
REMARK   12  A    between atoms: _29  and  _30
REMARK   13  A    between atoms: _29  and  _32
REMARK   14  A    between atoms: _32  and  _33
REMARK   15  A    between atoms: _36  and  _38
REMARK   16  A    between atoms: _38  and  _39
REMARK   17  A    between atoms: _38  and  _41
REMARK   18  A    between atoms: _41  and  _42
REMARK   19  A    between atoms: _45  and  _47
REMARK   20  A    between atoms: _47  and  _48
REMARK   21  A    between atoms: _47  and  _50
REMARK   22  A    between atoms: _50  and  _51
REMARK   23  A    between atoms: _54  and  _56
REMARK   24  A    between atoms: _56  and  _57
REMARK   25  A    between atoms: _56  and  _59
REMARK   26  A    between atoms: _59  and  _60
REMARK   27  A    between atoms: _63  and  _65
REMARK   28  A    between atoms: _65  and  _66
REMARK   29  A    between atoms: _68  and  _70
REMARK   30  A    between atoms: _70  and  _71
REMARK   31  A    between atoms: _74  and  _76
REMARK   32  A    between atoms: _76  and  _77
REMARK   33  A    between atoms: _76  and  _79
REMARK   34  A    between atoms: _79  and  _80
REMARK   35  A    between atoms: _83  and  _85
REMARK   36  A    between atoms: _85  and  _86
REMARK   37  A    between atoms: _85  and  _88
REMARK   38  A    between atoms: _88  and  _89
REMARK   39  A    between atoms: _92  and  _94
REMARK   40  A    between atoms: _94  and  _95
REMARK   41  A    between atoms: _94  and  _97
REMARK   42  A    between atoms: _97  and  _98
REMARK   43  A    between atoms: _101  and  _103
REMARK   44  A    between atoms: _103  and  _104
REMARK   45  A    between atoms: _103  and  _106
REMARK   46  A    between atoms: _109  and  _111
REMARK   47  A    between atoms: _111  and  _112
REMARK   48  A    between atoms: _111  and  _114
REMARK   49  A    between atoms: _114  and  _115
REMARK   50  A    between atoms: _118  and  _120
REMARK   51  A    between atoms: _120  and  _121
REMARK   52  A    between atoms: _123  and  _125
REMARK   53  A    between atoms: _125  and  _126
REMARK   54  A    between atoms: _128  and  _130
REMARK   55  A    between atoms: _130  and  _131
REMARK   56  A    between atoms: _130  and  _133
REMARK   57  A    between atoms: _133  and  _134
REMARK   58  A    between atoms: _137  and  _139
REMARK   59  A    between atoms: _139  and  _140
REMARK   60  A    between atoms: _142  and  _144
REMARK   61  A    between atoms: _144  and  _145
REMARK   62  A    between atoms: _147  and  _149
REMARK   63  A    between atoms: _149  and  _150
REMARK   64  A    between atoms: _149  and  _152
REMARK   65  A    between atoms: _152  and  _153
REMARK   66  A    between atoms: _159  and  _161
REMARK   67  A    between atoms: _161  and  _162
REMARK   68  A    between atoms: _161  and  _164
REMARK   69  A    between atoms: _164  and  _165
REMARK   70  A    between atoms: _168  and  _170
REMARK   71  A    between atoms: _170  and  _171
REMARK   72  A    between atoms: _170  and  _173
REMARK   73  A    between atoms: _176  and  _178
REMARK   74  A    between atoms: _178  and  _179
REMARK   75  A    between atoms: _178  and  _181
REMARK   76  A    between atoms: _181  and  _182
REMARK   77  A    between atoms: _186  and  _187
REMARK   78  A    between atoms: _192  and  _194
REMARK   79  A    between atoms: _194  and  _195
REMARK   80  A    between atoms: _194  and  _197
REMARK   81  A    between atoms: _197  and  _198
REMARK   82  A    between atoms: _202  and  _203
REMARK   83  A    between atoms: _208  and  _210
REMARK   84  A    between atoms: _210  and  _211
REMARK   85  A    between atoms: _210  and  _213
REMARK   86  A    between atoms: _216  and  _218
REMARK   87  A    between atoms: _218  and  _219
REMARK   88  A    between atoms: _218  and  _221
REMARK   89  A    between atoms: _221  and  _222
REMARK   90  A    between atoms: _227  and  _229
REMARK   91  A    between atoms: _229  and  _230
REMARK   92  A    between atoms: _229  and  _232
REMARK   93  A    between atoms: _232  and  _233
REMARK   94  A    between atoms: _236  and  _238
REMARK   95  A    between atoms: _238  and  _239
REMARK   96  A    between atoms: _238  and  _241
REMARK   97  A    between atoms: _241  and  _242
REMARK   98  A    between atoms: _245  and  _247
REMARK   99  A    between atoms: _247  and  _248
REMARK  100  A    between atoms: _250  and  _252
REMARK  101  A    between atoms: _252  and  _253
REMARK  102  A    between atoms: _252  and  _255
REMARK  103  A    between atoms: _255  and  _256
REMARK  104  A    between atoms: _256  and  _257
REMARK  105  A    between atoms: _257  and  _258
REMARK  106  A    between atoms: _267  and  _269
REMARK  107  A    between atoms: _269  and  _270
REMARK  108  A    between atoms: _269  and  _272
REMARK  109  A    between atoms: _272  and  _273
REMARK  110  A    between atoms: _278  and  _280
REMARK  111  A    between atoms: _280  and  _281
REMARK  112  A    between atoms: _280  and  _283
REMARK  113  A    between atoms: _283  and  _284
REMARK  114  A    between atoms: _284  and  _285
REMARK  115  A    between atoms: _285  and  _286
REMARK  116  A    between atoms: _296  and  _297
REMARK  117  A    between atoms: _302  and  _304
REMARK  118  A    between atoms: _304  and  _305
REMARK  119  A    between atoms: _304  and  _307
REMARK  120  A    between atoms: _307  and  _308
REMARK  121  A    between atoms: _311  and  _313
REMARK  122  A    between atoms: _313  and  _314
REMARK  123  A    between atoms: _313  and  _316
REMARK  124  A    between atoms: _316  and  _317
REMARK  125  A    between atoms: _320  and  _322
REMARK  126  A    between atoms: _322  and  _323
REMARK  127  A    between atoms: _322  and  _325
REMARK  128  A    between atoms: _325  and  _326
REMARK  129  A    between atoms: _329  and  _331
REMARK  130  A    between atoms: _331  and  _332
REMARK  131  A    between atoms: _331  and  _334
REMARK  132  A    between atoms: _334  and  _335
REMARK  133  A    between atoms: _338  and  _340
REMARK  134  A    between atoms: _340  and  _341
REMARK  135  A    between atoms: _340  and  _343
REMARK  136  A    between atoms: _343  and  _344
REMARK  137  A    between atoms: _347  and  _349
REMARK  138  A    between atoms: _349  and  _350
REMARK  139  A    between atoms: _352  and  _354
REMARK  140  A    between atoms: _354  and  _355
REMARK  141  A    between atoms: _358  and  _360
REMARK  142  A    between atoms: _360  and  _361
REMARK  143  A    between atoms: _360  and  _363
REMARK  144  A    between atoms: _363  and  _364
REMARK  145  A    between atoms: _367  and  _369
REMARK  146  A    between atoms: _369  and  _370
REMARK  147  A    between atoms: _369  and  _372
REMARK  148  A    between atoms: _372  and  _373
REMARK  149  A    between atoms: _376  and  _378
REMARK  150  A    between atoms: _378  and  _379
REMARK  151  A    between atoms: _378  and  _381
REMARK  152  A    between atoms: _381  and  _382
REMARK  153  A    between atoms: _385  and  _387
REMARK  154  A    between atoms: _387  and  _388
REMARK  155  A    between atoms: _387  and  _390
REMARK  156  A    between atoms: _393  and  _395
REMARK  157  A    between atoms: _395  and  _396
REMARK  158  A    between atoms: _395  and  _398
REMARK  159  A    between atoms: _398  and  _399
REMARK  160  A    between atoms: _399  and  _400
REMARK  161  A    between atoms: _400  and  _401
REMARK  162  A    between atoms: _401  and  _402
REMARK  163  A    between atoms: _406  and  _408
REMARK  164  A    between atoms: _408  and  _409
REMARK  165  A    between atoms: _408  and  _411
REMARK  166  A    between atoms: _411  and  _412
REMARK  167  A    between atoms: _412  and  _413
REMARK  168  A    between atoms: _415  and  _417
REMARK  169  A    between atoms: _417  and  _418
REMARK  170  A    between atoms: _417  and  _420
REMARK  171  A    between atoms: _420  and  _421
REMARK  172  A    between atoms: _424  and  _426
REMARK  173  A    between atoms: _426  and  _427
REMARK  174  A    between atoms: _429  and  _431
REMARK  175  A    between atoms: _431  and  _432
REMARK  176  A    between atoms: _434  and  _436
REMARK  177  A    between atoms: _436  and  _437
REMARK  178  A    between atoms: _436  and  _439
REMARK  179  A    between atoms: _439  and  _440
REMARK  180  A    between atoms: _443  and  _445
REMARK  181  A    between atoms: _445  and  _446
REMARK  182  A    between atoms: _448  and  _450
REMARK  183  A    between atoms: _450  and  _451
REMARK  184  A    between atoms: _453  and  _455
REMARK  185  A    between atoms: _455  and  _456
REMARK  186  A    between atoms: _455  and  _458
REMARK  187  A    between atoms: _458  and  _459
REMARK  188  A    between atoms: _465  and  _467
REMARK  189  A    between atoms: _467  and  _468
REMARK  190  A    between atoms: _467  and  _470
REMARK  191  A    between atoms: _470  and  _471
REMARK  192  A    between atoms: _474  and  _476
REMARK  193  A    between atoms: _476  and  _477
REMARK  194  A    between atoms: _476  and  _479
REMARK  195  A    between atoms: _482  and  _484
REMARK  196  A    between atoms: _484  and  _485
REMARK  197  A    between atoms: _484  and  _487
REMARK  198  A    between atoms: _487  and  _488
REMARK  199  A    between atoms: _491  and  _493
REMARK  200  A    between atoms: _493  and  _494
REMARK  201  A    between atoms: _493  and  _496
REMARK  202  A    between atoms: _496  and  _497
REMARK  203  A    between atoms: _501  and  _502
REMARK  204  A    between atoms: _507  and  _509
REMARK  205  A    between atoms: _509  and  _510
REMARK  206  A    between atoms: _509  and  _512
REMARK  207  A    between atoms: _515  and  _517
REMARK  208  A    between atoms: _517  and  _518
REMARK  209  A    between atoms: _517  and  _520
REMARK  210  A    between atoms: _520  and  _521
REMARK  211  A    between atoms: _526  and  _528
REMARK  212  A    between atoms: _528  and  _529
REMARK  213  A    between atoms: _528  and  _531
REMARK  214  A    between atoms: _531  and  _532
REMARK  215  A    between atoms: _535  and  _537
REMARK  216  A    between atoms: _537  and  _538
REMARK  217  A    between atoms: _537  and  _540
REMARK  218  A    between atoms: _540  and  _541
REMARK  219  A    between atoms: _544  and  _546
REMARK  220  A    between atoms: _546  and  _547
REMARK  221  A    between atoms: _549  and  _551
REMARK  222  A    between atoms: _551  and  _552
REMARK  223  A    between atoms: _551  and  _554
REMARK  224  A    between atoms: _554  and  _555
REMARK  225  A    between atoms: _555  and  _556
REMARK  226  A    between atoms: _556  and  _557
REMARK  227  A    between atoms: _566  and  _568
REMARK  228  A    between atoms: _568  and  _569
REMARK  229  A    between atoms: _568  and  _571
REMARK  230  A    between atoms: _571  and  _572
REMARK                            x       y       z     vdW  Elec       q    Type
REMARK                         _______ _______ _______ _____ _____    ______ ____
ROOT
ATOM      1  O   HOH     1      18.418  34.370  19.360  0.00  0.00    +0.000 OA
ENDROOT
TORSDOF 0
REMARK  Name = ../refined-set-2016/3o9i/3o9i_pocket.pdb
REMARK  230 active torsions:
REMARK  status: ('A' for Active; 'I' for Inactive)
REMARK    1  A    between atoms: _1  and  _3
REMARK    2  A    between atoms: _3  and  _4
REMARK    3  A    between atoms: _3  and  _6
REMARK    4  A    between atoms: _6  and  _7
REMARK    5  A    between atoms: _7  and  _8
REMARK    6  A    between atoms: _8  and  _9
REMARK    7  A    between atoms: _18  and  _20
REMARK    8  A    between atoms: _20  and  _21
REMARK    9  A    between atoms: _20  and  _23
REMARK   10  A    between atoms: _23  and  _24
REMARK   11  A    between atoms: _27  and  _29
REMARK   12  A    between atoms: _29  and  _30
REMARK   13  A    between atoms: _29  and  _32
REMARK   14  A    between atoms: _32  and  _33
REMARK   15  A    between atoms: _36  and  _38
REMARK   16  A    between atoms: _38  and  _39
REMARK   17  A    between atoms: _38  and  _41
REMARK   18  A    between atoms: _41  and  _42
REMARK   19  A    between atoms: _45  and  _47
REMARK   20  A    between atoms: _47  and  _48
REMARK   21  A    between atoms: _47  and  _50
REMARK   22  A    between atoms: _50  and  _51
REMARK   23  A    between atoms: _54  and  _56
REMARK   24  A    between atoms: _56  and  _57
REMARK   25  A    between atoms: _56  and  _59
REMARK   26  A    between atoms: _59  and  _60
REMARK   27  A    between atoms: _63  and  _65
REMARK   28  A    between atoms: _65  and  _66
REMARK   29  A    between atoms: _68  and  _70
REMARK   30  A    between atoms: _70  and  _71
REMARK   31  A    between atoms: _74  and  _76
REMARK   32  A    between atoms: _76  and  _77
REMARK   33  A    between atoms: _76  and  _79
REMARK   34  A    between atoms: _79  and  _80
REMARK   35  A    between atoms: _83  and  _85
REMARK   36  A    between atoms: _85  and  _86
REMARK   37  A    between atoms: _85  and  _88
REMARK   38  A    between atoms: _88  and  _89
REMARK   39  A    between atoms: _92  and  _94
REMARK   40  A    between atoms: _94  and  _95
REMARK   41  A    between atoms: _94  and  _97
REMARK   42  A    between atoms: _97  and  _98
REMARK   43  A    between atoms: _101  and  _103
REMARK   44  A    between atoms: _103  and  _104
REMARK   45  A    between atoms: _103  and  _106
REMARK   46  A    between atoms: _109  and  _111
REMARK   47  A    between atoms: _111  and  _112
REMARK   48  A    between atoms: _111  and  _114
REMARK   49  A    between atoms: _114  and  _115
REMARK   50  A    between atoms: _118  and  _120
REMARK   51  A    between atoms: _120  and  _121
REMARK   52  A    between atoms: _123  and  _125
REMARK   53  A    between atoms: _125  and  _126
REMARK   54  A    between atoms: _128  and  _130
REMARK   55  A    between atoms: _130  and  _131
REMARK   56  A    between atoms: _130  and  _133
REMARK   57  A    between atoms: _133  and  _134
REMARK   58  A    between atoms: _137  and  _139
REMARK   59  A    between atoms: _139  and  _140
REMARK   60  A    between atoms: _142  and  _144
REMARK   61  A    between atoms: _144  and  _145
REMARK   62  A    between atoms: _147  and  _149
REMARK   63  A    between atoms: _149  and  _150
REMARK   64  A    between atoms: _149  and  _152
REMARK   65  A    between atoms: _152  and  _153
REMARK   66  A    between atoms: _159  and  _161
REMARK   67  A    between atoms: _161  and  _162
REMARK   68  A    between atoms: _161  and  _164
REMARK   69  A    between atoms: _164  and  _165
REMARK   70  A    between atoms: _168  and  _170
REMARK   71  A    between atoms: _170  and  _171
REMARK   72  A    between atoms: _170  and  _173
REMARK   73  A    between atoms: _176  and  _178
REMARK   74  A    between atoms: _178  and  _179
REMARK   75  A    between atoms: _178  and  _181
REMARK   76  A    between atoms: _181  and  _182
REMARK   77  A    between atoms: _186  and  _187
REMARK   78  A    between atoms: _192  and  _194
REMARK   79  A    between atoms: _194  and  _195
REMARK   80  A    between atoms: _194  and  _197
REMARK   81  A    between atoms: _197  and  _198
REMARK   82  A    between atoms: _202  and  _203
REMARK   83  A    between atoms: _208  and  _210
REMARK   84  A    between atoms: _210  and  _211
REMARK   85  A    between atoms: _210  and  _213
REMARK   86  A    between atoms: _216  and  _218
REMARK   87  A    between atoms: _218  and  _219
REMARK   88  A    between atoms: _218  and  _221
REMARK   89  A    between atoms: _221  and  _222
REMARK   90  A    between atoms: _227  and  _229
REMARK   91  A    between atoms: _229  and  _230
REMARK   92  A    between atoms: _229  and  _232
REMARK   93  A    between atoms: _232  and  _233
REMARK   94  A    between atoms: _236  and  _238
REMARK   95  A    between atoms: _238  and  _239
REMARK   96  A    between atoms: _238  and  _241
REMARK   97  A    between atoms: _241  and  _242
REMARK   98  A    between atoms: _245  and  _247
REMARK   99  A    between atoms: _247  and  _248
REMARK  100  A    between atoms: _250  and  _252
REMARK  101  A    between atoms: _252  and  _253
REMARK  102  A    between atoms: _252  and  _255
REMARK  103  A    between atoms: _255  and  _256
REMARK  104  A    between atoms: _256  and  _257
REMARK  105  A    between atoms: _257  and  _258
REMARK  106  A    between atoms: _267  and  _269
REMARK  107  A    between atoms: _269  and  _270
REMARK  108  A    between atoms: _269  and  _272
REMARK  109  A    between atoms: _272  and  _273
REMARK  110  A    between atoms: _278  and  _280
REMARK  111  A    between atoms: _280  and  _281
REMARK  112  A    between atoms: _280  and  _283
REMARK  113  A    between atoms: _283  and  _284
REMARK  114  A    between atoms: _284  and  _285
REMARK  115  A    between atoms: _285  and  _286
REMARK  116  A    between atoms: _296  and  _297
REMARK  117  A    between atoms: _302  and  _304
REMARK  118  A    between atoms: _304  and  _305
REMARK  119  A    between atoms: _304  and  _307
REMARK  120  A    between atoms: _307  and  _308
REMARK  121  A    between atoms: _311  and  _313
REMARK  122  A    between atoms: _313  and  _314
REMARK  123  A    between atoms: _313  and  _316
REMARK  124  A    between atoms: _316  and  _317
REMARK  125  A    between atoms: _320  and  _322
REMARK  126  A    between atoms: _322  and  _323
REMARK  127  A    between atoms: _322  and  _325
REMARK  128  A    between atoms: _325  and  _326
REMARK  129  A    between atoms: _329  and  _331
REMARK  130  A    between atoms: _331  and  _332
REMARK  131  A    between atoms: _331  and  _334
REMARK  132  A    between atoms: _334  and  _335
REMARK  133  A    between atoms: _338  and  _340
REMARK  134  A    between atoms: _340  and  _341
REMARK  135  A    between atoms: _340  and  _343
REMARK  136  A    between atoms: _343  and  _344
REMARK  137  A    between atoms: _347  and  _349
REMARK  138  A    between atoms: _349  and  _350
REMARK  139  A    between atoms: _352  and  _354
REMARK  140  A    between atoms: _354  and  _355
REMARK  141  A    between atoms: _358  and  _360
REMARK  142  A    between atoms: _360  and  _361
REMARK  143  A    between atoms: _360  and  _363
REMARK  144  A    between atoms: _363  and  _364
REMARK  145  A    between atoms: _367  and  _369
REMARK  146  A    between atoms: _369  and  _370
REMARK  147  A    between atoms: _369  and  _372
REMARK  148  A    between atoms: _372  and  _373
REMARK  149  A    between atoms: _376  and  _378
REMARK  150  A    between atoms: _378  and  _379
REMARK  151  A    between atoms: _378  and  _381
REMARK  152  A    between atoms: _381  and  _382
REMARK  153  A    between atoms: _385  and  _387
REMARK  154  A    between atoms: _387  and  _388
REMARK  155  A    between atoms: _387  and  _390
REMARK  156  A    between atoms: _393  and  _395
REMARK  157  A    between atoms: _395  and  _396
REMARK  158  A    between atoms: _395  and  _398
REMARK  159  A    between atoms: _398  and  _399
REMARK  160  A    between atoms: _399  and  _400
REMARK  161  A    between atoms: _400  and  _401
REMARK  162  A    between atoms: _401  and  _402
REMARK  163  A    between atoms: _406  and  _408
REMARK  164  A    between atoms: _408  and  _409
REMARK  165  A    between atoms: _408  and  _411
REMARK  166  A    between atoms: _411  and  _412
REMARK  167  A    between atoms: _412  and  _413
REMARK  168  A    between atoms: _415  and  _417
REMARK  169  A    between atoms: _417  and  _418
REMARK  170  A    between atoms: _417  and  _420
REMARK  171  A    between atoms: _420  and  _421
REMARK  172  A    between atoms: _424  and  _426
REMARK  173  A    between atoms: _426  and  _427
REMARK  174  A    between atoms: _429  and  _431
REMARK  175  A    between atoms: _431  and  _432
REMARK  176  A    between atoms: _434  and  _436
REMARK  177  A    between atoms: _436  and  _437
REMARK  178  A    between atoms: _436  and  _439
REMARK  179  A    between atoms: _439  and  _440
REMARK  180  A    between atoms: _443  and  _445
REMARK  181  A    between atoms: _445  and  _446
REMARK  182  A    between atoms: _448  and  _450
REMARK  183  A    between atoms: _450  and  _451
REMARK  184  A    between atoms: _453  and  _455
REMARK  185  A    between atoms: _455  and  _456
REMARK  186  A    between atoms: _455  and  _458
REMARK  187  A    between atoms: _458  and  _459
REMARK  188  A    between atoms: _465  and  _467
REMARK  189  A    between atoms: _467  and  _468
REMARK  190  A    between atoms: _467  and  _470
REMARK  191  A    between atoms: _470  and  _471
REMARK  192  A    between atoms: _474  and  _476
REMARK  193  A    between atoms: _476  and  _477
REMARK  194  A    between atoms: _476  and  _479
REMARK  195  A    between atoms: _482  and  _484
REMARK  196  A    between atoms: _484  and  _485
REMARK  197  A    between atoms: _484  and  _487
REMARK  198  A    between atoms: _487  and  _488
REMARK  199  A    between atoms: _491  and  _493
REMARK  200  A    between atoms: _493  and  _494
REMARK  201  A    between atoms: _493  and  _496
REMARK  202  A    between atoms: _496  and  _497
REMARK  203  A    between atoms: _501  and  _502
REMARK  204  A    between atoms: _507  and  _509
REMARK  205  A    between atoms: _509  and  _510
REMARK  206  A    between atoms: _509  and  _512
REMARK  207  A    between atoms: _515  and  _517
REMARK  208  A    between atoms: _517  and  _518
REMARK  209  A    between atoms: _517  and  _520
REMARK  210  A    between atoms: _520  and  _521
REMARK  211  A    between atoms: _526  and  _528
REMARK  212  A    between atoms: _528  and  _529
REMARK  213  A    between atoms: _528  and  _531
REMARK  214  A    between atoms: _531  and  _532
REMARK  215  A    between atoms: _535  and  _537
REMARK  216  A    between atoms: _537  and  _538
REMARK  217  A    between atoms: _537  and  _540
REMARK  218  A    between atoms: _540  and  _541
REMARK  219  A    between atoms: _544  and  _546
REMARK  220  A    between atoms: _546  and  _547
REMARK  221  A    between atoms: _549  and  _551
REMARK  222  A    between atoms: _551  and  _552
REMARK  223  A    between atoms: _551  and  _554
REMARK  224  A    between atoms: _554  and  _555
REMARK  225  A    between atoms: _555  and  _556
REMARK  226  A    between atoms: _556  and  _557
REMARK  227  A    between atoms: _566  and  _568
REMARK  228  A    between atoms: _568  and  _569
REMARK  229  A    between atoms: _568  and  _571
REMARK  230  A    between atoms: _571  and  _572
REMARK                            x       y       z     vdW  Elec       q    Type
REMARK                         _______ _______ _______ _____ _____    ______ ____
ROOT
ATOM      1  O   HOH     1      22.328  36.046  20.331  0.00  0.00    +0.000 OA
ENDROOT
TORSDOF 0
REMARK  Name = ../refined-set-2016/3o9i/3o9i_pocket.pdb
REMARK  230 active torsions:
REMARK  status: ('A' for Active; 'I' for Inactive)
REMARK    1  A    between atoms: _1  and  _3
REMARK    2  A    between atoms: _3  and  _4
REMARK    3  A    between atoms: _3  and  _6
REMARK    4  A    between atoms: _6  and  _7
REMARK    5  A    between atoms: _7  and  _8
REMARK    6  A    between atoms: _8  and  _9
REMARK    7  A    between atoms: _18  and  _20
REMARK    8  A    between atoms: _20  and  _21
REMARK    9  A    between atoms: _20  and  _23
REMARK   10  A    between atoms: _23  and  _24
REMARK   11  A    between atoms: _27  and  _29
REMARK   12  A    between atoms: _29  and  _30
REMARK   13  A    between atoms: _29  and  _32
REMARK   14  A    between atoms: _32  and  _33
REMARK   15  A    between atoms: _36  and  _38
REMARK   16  A    between atoms: _38  and  _39
REMARK   17  A    between atoms: _38  and  _41
REMARK   18  A    between atoms: _41  and  _42
REMARK   19  A    between atoms: _45  and  _47
REMARK   20  A    between atoms: _47  and  _48
REMARK   21  A    between atoms: _47  and  _50
REMARK   22  A    between atoms: _50  and  _51
REMARK   23  A    between atoms: _54  and  _56
REMARK   24  A    between atoms: _56  and  _57
REMARK   25  A    between atoms: _56  and  _59
REMARK   26  A    between atoms: _59  and  _60
REMARK   27  A    between atoms: _63  and  _65
REMARK   28  A    between atoms: _65  and  _66
REMARK   29  A    between atoms: _68  and  _70
REMARK   30  A    between atoms: _70  and  _71
REMARK   31  A    between atoms: _74  and  _76
REMARK   32  A    between atoms: _76  and  _77
REMARK   33  A    between atoms: _76  and  _79
REMARK   34  A    between atoms: _79  and  _80
REMARK   35  A    between atoms: _83  and  _85
REMARK   36  A    between atoms: _85  and  _86
REMARK   37  A    between atoms: _85  and  _88
REMARK   38  A    between atoms: _88  and  _89
REMARK   39  A    between atoms: _92  and  _94
REMARK   40  A    between atoms: _94  and  _95
REMARK   41  A    between atoms: _94  and  _97
REMARK   42  A    between atoms: _97  and  _98
REMARK   43  A    between atoms: _101  and  _103
REMARK   44  A    between atoms: _103  and  _104
REMARK   45  A    between atoms: _103  and  _106
REMARK   46  A    between atoms: _109  and  _111
REMARK   47  A    between atoms: _111  and  _112
REMARK   48  A    between atoms: _111  and  _114
REMARK   49  A    between atoms: _114  and  _115
REMARK   50  A    between atoms: _118  and  _120
REMARK   51  A    between atoms: _120  and  _121
REMARK   52  A    between atoms: _123  and  _125
REMARK   53  A    between atoms: _125  and  _126
REMARK   54  A    between atoms: _128  and  _130
REMARK   55  A    between atoms: _130  and  _131
REMARK   56  A    between atoms: _130  and  _133
REMARK   57  A    between atoms: _133  and  _134
REMARK   58  A    between atoms: _137  and  _139
REMARK   59  A    between atoms: _139  and  _140
REMARK   60  A    between atoms: _142  and  _144
REMARK   61  A    between atoms: _144  and  _145
REMARK   62  A    between atoms: _147  and  _149
REMARK   63  A    between atoms: _149  and  _150
REMARK   64  A    between atoms: _149  and  _152
REMARK   65  A    between atoms: _152  and  _153
REMARK   66  A    between atoms: _159  and  _161
REMARK   67  A    between atoms: _161  and  _162
REMARK   68  A    between atoms: _161  and  _164
REMARK   69  A    between atoms: _164  and  _165
REMARK   70  A    between atoms: _168  and  _170
REMARK   71  A    between atoms: _170  and  _171
REMARK   72  A    between atoms: _170  and  _173
REMARK   73  A    between atoms: _176  and  _178
REMARK   74  A    between atoms: _178  and  _179
REMARK   75  A    between atoms: _178  and  _181
REMARK   76  A    between atoms: _181  and  _182
REMARK   77  A    between atoms: _186  and  _187
REMARK   78  A    between atoms: _192  and  _194
REMARK   79  A    between atoms: _194  and  _195
REMARK   80  A    between atoms: _194  and  _197
REMARK   81  A    between atoms: _197  and  _198
REMARK   82  A    between atoms: _202  and  _203
REMARK   83  A    between atoms: _208  and  _210
REMARK   84  A    between atoms: _210  and  _211
REMARK   85  A    between atoms: _210  and  _213
REMARK   86  A    between atoms: _216  and  _218
REMARK   87  A    between atoms: _218  and  _219
REMARK   88  A    between atoms: _218  and  _221
REMARK   89  A    between atoms: _221  and  _222
REMARK   90  A    between atoms: _227  and  _229
REMARK   91  A    between atoms: _229  and  _230
REMARK   92  A    between atoms: _229  and  _232
REMARK   93  A    between atoms: _232  and  _233
REMARK   94  A    between atoms: _236  and  _238
REMARK   95  A    between atoms: _238  and  _239
REMARK   96  A    between atoms: _238  and  _241
REMARK   97  A    between atoms: _241  and  _242
REMARK   98  A    between atoms: _245  and  _247
REMARK   99  A    between atoms: _247  and  _248
REMARK  100  A    between atoms: _250  and  _252
REMARK  101  A    between atoms: _252  and  _253
REMARK  102  A    between atoms: _252  and  _255
REMARK  103  A    between atoms: _255  and  _256
REMARK  104  A    between atoms: _256  and  _257
REMARK  105  A    between atoms: _257  and  _258
REMARK  106  A    between atoms: _267  and  _269
REMARK  107  A    between atoms: _269  and  _270
REMARK  108  A    between atoms: _269  and  _272
REMARK  109  A    between atoms: _272  and  _273
REMARK  110  A    between atoms: _278  and  _280
REMARK  111  A    between atoms: _280  and  _281
REMARK  112  A    between atoms: _280  and  _283
REMARK  113  A    between atoms: _283  and  _284
REMARK  114  A    between atoms: _284  and  _285
REMARK  115  A    between atoms: _285  and  _286
REMARK  116  A    between atoms: _296  and  _297
REMARK  117  A    between atoms: _302  and  _304
REMARK  118  A    between atoms: _304  and  _305
REMARK  119  A    between atoms: _304  and  _307
REMARK  120  A    between atoms: _307  and  _308
REMARK  121  A    between atoms: _311  and  _313
REMARK  122  A    between atoms: _313  and  _314
REMARK  123  A    between atoms: _313  and  _316
REMARK  124  A    between atoms: _316  and  _317
REMARK  125  A    between atoms: _320  and  _322
REMARK  126  A    between atoms: _322  and  _323
REMARK  127  A    between atoms: _322  and  _325
REMARK  128  A    between atoms: _325  and  _326
REMARK  129  A    between atoms: _329  and  _331
REMARK  130  A    between atoms: _331  and  _332
REMARK  131  A    between atoms: _331  and  _334
REMARK  132  A    between atoms: _334  and  _335
REMARK  133  A    between atoms: _338  and  _340
REMARK  134  A    between atoms: _340  and  _341
REMARK  135  A    between atoms: _340  and  _343
REMARK  136  A    between atoms: _343  and  _344
REMARK  137  A    between atoms: _347  and  _349
REMARK  138  A    between atoms: _349  and  _350
REMARK  139  A    between atoms: _352  and  _354
REMARK  140  A    between atoms: _354  and  _355
REMARK  141  A    between atoms: _358  and  _360
REMARK  142  A    between atoms: _360  and  _361
REMARK  143  A    between atoms: _360  and  _363
REMARK  144  A    between atoms: _363  and  _364
REMARK  145  A    between atoms: _367  and  _369
REMARK  146  A    between atoms: _369  and  _370
REMARK  147  A    between atoms: _369  and  _372
REMARK  148  A    between atoms: _372  and  _373
REMARK  149  A    between atoms: _376  and  _378
REMARK  150  A    between atoms: _378  and  _379
REMARK  151  A    between atoms: _378  and  _381
REMARK  152  A    between atoms: _381  and  _382
REMARK  153  A    between atoms: _385  and  _387
REMARK  154  A    between atoms: _387  and  _388
REMARK  155  A    between atoms: _387  and  _390
REMARK  156  A    between atoms: _393  and  _395
REMARK  157  A    between atoms: _395  and  _396
REMARK  158  A    between atoms: _395  and  _398
REMARK  159  A    between atoms: _398  and  _399
REMARK  160  A    between atoms: _399  and  _400
REMARK  161  A    between atoms: _400  and  _401
REMARK  162  A    between atoms: _401  and  _402
REMARK  163  A    between atoms: _406  and  _408
REMARK  164  A    between atoms: _408  and  _409
REMARK  165  A    between atoms: _408  and  _411
REMARK  166  A    between atoms: _411  and  _412
REMARK  167  A    between atoms: _412  and  _413
REMARK  168  A    between atoms: _415  and  _417
REMARK  169  A    between atoms: _417  and  _418
REMARK  170  A    between atoms: _417  and  _420
REMARK  171  A    between atoms: _420  and  _421
REMARK  172  A    between atoms: _424  and  _426
REMARK  173  A    between atoms: _426  and  _427
REMARK  174  A    between atoms: _429  and  _431
REMARK  175  A    between atoms: _431  and  _432
REMARK  176  A    between atoms: _434  and  _436
REMARK  177  A    between atoms: _436  and  _437
REMARK  178  A    between atoms: _436  and  _439
REMARK  179  A    between atoms: _439  and  _440
REMARK  180  A    between atoms: _443  and  _445
REMARK  181  A    between atoms: _445  and  _446
REMARK  182  A    between atoms: _448  and  _450
REMARK  183  A    between atoms: _450  and  _451
REMARK  184  A    between atoms: _453  and  _455
REMARK  185  A    between atoms: _455  and  _456
REMARK  186  A    between atoms: _455  and  _458
REMARK  187  A    between atoms: _458  and  _459
REMARK  188  A    between atoms: _465  and  _467
REMARK  189  A    between atoms: _467  and  _468
REMARK  190  A    between atoms: _467  and  _470
REMARK  191  A    between atoms: _470  and  _471
REMARK  192  A    between atoms: _474  and  _476
REMARK  193  A    between atoms: _476  and  _477
REMARK  194  A    between atoms: _476  and  _479
REMARK  195  A    between atoms: _482  and  _484
REMARK  196  A    between atoms: _484  and  _485
REMARK  197  A    between atoms: _484  and  _487
REMARK  198  A    between atoms: _487  and  _488
REMARK  199  A    between atoms: _491  and  _493
REMARK  200  A    between atoms: _493  and  _494
REMARK  201  A    between atoms: _493  and  _496
REMARK  202  A    between atoms: _496  and  _497
REMARK  203  A    between atoms: _501  and  _502
REMARK  204  A    between atoms: _507  and  _509
REMARK  205  A    between atoms: _509  and  _510
REMARK  206  A    between atoms: _509  and  _512
REMARK  207  A    between atoms: _515  and  _517
REMARK  208  A    between atoms: _517  and  _518
REMARK  209  A    between atoms: _517  and  _520
REMARK  210  A    between atoms: _520  and  _521
REMARK  211  A    between atoms: _526  and  _528
REMARK  212  A    between atoms: _528  and  _529
REMARK  213  A    between atoms: _528  and  _531
REMARK  214  A    between atoms: _531  and  _532
REMARK  215  A    between atoms: _535  and  _537
REMARK  216  A    between atoms: _537  and  _538
REMARK  217  A    between atoms: _537  and  _540
REMARK  218  A    between atoms: _540  and  _541
REMARK  219  A    between atoms: _544  and  _546
REMARK  220  A    between atoms: _546  and  _547
REMARK  221  A    between atoms: _549  and  _551
REMARK  222  A    between atoms: _551  and  _552
REMARK  223  A    between atoms: _551  and  _554
REMARK  224  A    between atoms: _554  and  _555
REMARK  225  A    between atoms: _555  and  _556
REMARK  226  A    between atoms: _556  and  _557
REMARK  227  A    between atoms: _566  and  _568
REMARK  228  A    between atoms: _568  and  _569
REMARK  229  A    between atoms: _568  and  _571
REMARK  230  A    between atoms: _571  and  _572
REMARK                            x       y       z     vdW  Elec       q    Type
REMARK                         _______ _______ _______ _____ _____    ______ ____
ROOT
ATOM      1  O   HOH     1      14.430  40.417  21.279  0.00  0.00    +0.000 OA
ENDROOT
TORSDOF 0
REMARK  Name = ../refined-set-2016/3o9i/3o9i_pocket.pdb
REMARK  230 active torsions:
REMARK  status: ('A' for Active; 'I' for Inactive)
REMARK    1  A    between atoms: _1  and  _3
REMARK    2  A    between atoms: _3  and  _4
REMARK    3  A    between atoms: _3  and  _6
REMARK    4  A    between atoms: _6  and  _7
REMARK    5  A    between atoms: _7  and  _8
REMARK    6  A    between atoms: _8  and  _9
REMARK    7  A    between atoms: _18  and  _20
REMARK    8  A    between atoms: _20  and  _21
REMARK    9  A    between atoms: _20  and  _23
REMARK   10  A    between atoms: _23  and  _24
REMARK   11  A    between atoms: _27  and  _29
REMARK   12  A    between atoms: _29  and  _30
REMARK   13  A    between atoms: _29  and  _32
REMARK   14  A    between atoms: _32  and  _33
REMARK   15  A    between atoms: _36  and  _38
REMARK   16  A    between atoms: _38  and  _39
REMARK   17  A    between atoms: _38  and  _41
REMARK   18  A    between atoms: _41  and  _42
REMARK   19  A    between atoms: _45  and  _47
REMARK   20  A    between atoms: _47  and  _48
REMARK   21  A    between atoms: _47  and  _50
REMARK   22  A    between atoms: _50  and  _51
REMARK   23  A    between atoms: _54  and  _56
REMARK   24  A    between atoms: _56  and  _57
REMARK   25  A    between atoms: _56  and  _59
REMARK   26  A    between atoms: _59  and  _60
REMARK   27  A    between atoms: _63  and  _65
REMARK   28  A    between atoms: _65  and  _66
REMARK   29  A    between atoms: _68  and  _70
REMARK   30  A    between atoms: _70  and  _71
REMARK   31  A    between atoms: _74  and  _76
REMARK   32  A    between atoms: _76  and  _77
REMARK   33  A    between atoms: _76  and  _79
REMARK   34  A    between atoms: _79  and  _80
REMARK   35  A    between atoms: _83  and  _85
REMARK   36  A    between atoms: _85  and  _86
REMARK   37  A    between atoms: _85  and  _88
REMARK   38  A    between atoms: _88  and  _89
REMARK   39  A    between atoms: _92  and  _94
REMARK   40  A    between atoms: _94  and  _95
REMARK   41  A    between atoms: _94  and  _97
REMARK   42  A    between atoms: _97  and  _98
REMARK   43  A    between atoms: _101  and  _103
REMARK   44  A    between atoms: _103  and  _104
REMARK   45  A    between atoms: _103  and  _106
REMARK   46  A    between atoms: _109  and  _111
REMARK   47  A    between atoms: _111  and  _112
REMARK   48  A    between atoms: _111  and  _114
REMARK   49  A    between atoms: _114  and  _115
REMARK   50  A    between atoms: _118  and  _120
REMARK   51  A    between atoms: _120  and  _121
REMARK   52  A    between atoms: _123  and  _125
REMARK   53  A    between atoms: _125  and  _126
REMARK   54  A    between atoms: _128  and  _130
REMARK   55  A    between atoms: _130  and  _131
REMARK   56  A    between atoms: _130  and  _133
REMARK   57  A    between atoms: _133  and  _134
REMARK   58  A    between atoms: _137  and  _139
REMARK   59  A    between atoms: _139  and  _140
REMARK   60  A    between atoms: _142  and  _144
REMARK   61  A    between atoms: _144  and  _145
REMARK   62  A    between atoms: _147  and  _149
REMARK   63  A    between atoms: _149  and  _150
REMARK   64  A    between atoms: _149  and  _152
REMARK   65  A    between atoms: _152  and  _153
REMARK   66  A    between atoms: _159  and  _161
REMARK   67  A    between atoms: _161  and  _162
REMARK   68  A    between atoms: _161  and  _164
REMARK   69  A    between atoms: _164  and  _165
REMARK   70  A    between atoms: _168  and  _170
REMARK   71  A    between atoms: _170  and  _171
REMARK   72  A    between atoms: _170  and  _173
REMARK   73  A    between atoms: _176  and  _178
REMARK   74  A    between atoms: _178  and  _179
REMARK   75  A    between atoms: _178  and  _181
REMARK   76  A    between atoms: _181  and  _182
REMARK   77  A    between atoms: _186  and  _187
REMARK   78  A    between atoms: _192  and  _194
REMARK   79  A    between atoms: _194  and  _195
REMARK   80  A    between atoms: _194  and  _197
REMARK   81  A    between atoms: _197  and  _198
REMARK   82  A    between atoms: _202  and  _203
REMARK   83  A    between atoms: _208  and  _210
REMARK   84  A    between atoms: _210  and  _211
REMARK   85  A    between atoms: _210  and  _213
REMARK   86  A    between atoms: _216  and  _218
REMARK   87  A    between atoms: _218  and  _219
REMARK   88  A    between atoms: _218  and  _221
REMARK   89  A    between atoms: _221  and  _222
REMARK   90  A    between atoms: _227  and  _229
REMARK   91  A    between atoms: _229  and  _230
REMARK   92  A    between atoms: _229  and  _232
REMARK   93  A    between atoms: _232  and  _233
REMARK   94  A    between atoms: _236  and  _238
REMARK   95  A    between atoms: _238  and  _239
REMARK   96  A    between atoms: _238  and  _241
REMARK   97  A    between atoms: _241  and  _242
REMARK   98  A    between atoms: _245  and  _247
REMARK   99  A    between atoms: _247  and  _248
REMARK  100  A    between atoms: _250  and  _252
REMARK  101  A    between atoms: _252  and  _253
REMARK  102  A    between atoms: _252  and  _255
REMARK  103  A    between atoms: _255  and  _256
REMARK  104  A    between atoms: _256  and  _257
REMARK  105  A    between atoms: _257  and  _258
REMARK  106  A    between atoms: _267  and  _269
REMARK  107  A    between atoms: _269  and  _270
REMARK  108  A    between atoms: _269  and  _272
REMARK  109  A    between atoms: _272  and  _273
REMARK  110  A    between atoms: _278  and  _280
REMARK  111  A    between atoms: _280  and  _281
REMARK  112  A    between atoms: _280  and  _283
REMARK  113  A    between atoms: _283  and  _284
REMARK  114  A    between atoms: _284  and  _285
REMARK  115  A    between atoms: _285  and  _286
REMARK  116  A    between atoms: _296  and  _297
REMARK  117  A    between atoms: _302  and  _304
REMARK  118  A    between atoms: _304  and  _305
REMARK  119  A    between atoms: _304  and  _307
REMARK  120  A    between atoms: _307  and  _308
REMARK  121  A    between atoms: _311  and  _313
REMARK  122  A    between atoms: _313  and  _314
REMARK  123  A    between atoms: _313  and  _316
REMARK  124  A    between atoms: _316  and  _317
REMARK  125  A    between atoms: _320  and  _322
REMARK  126  A    between atoms: _322  and  _323
REMARK  127  A    between atoms: _322  and  _325
REMARK  128  A    between atoms: _325  and  _326
REMARK  129  A    between atoms: _329  and  _331
REMARK  130  A    between atoms: _331  and  _332
REMARK  131  A    between atoms: _331  and  _334
REMARK  132  A    between atoms: _334  and  _335
REMARK  133  A    between atoms: _338  and  _340
REMARK  134  A    between atoms: _340  and  _341
REMARK  135  A    between atoms: _340  and  _343
REMARK  136  A    between atoms: _343  and  _344
REMARK  137  A    between atoms: _347  and  _349
REMARK  138  A    between atoms: _349  and  _350
REMARK  139  A    between atoms: _352  and  _354
REMARK  140  A    between atoms: _354  and  _355
REMARK  141  A    between atoms: _358  and  _360
REMARK  142  A    between atoms: _360  and  _361
REMARK  143  A    between atoms: _360  and  _363
REMARK  144  A    between atoms: _363  and  _364
REMARK  145  A    between atoms: _367  and  _369
REMARK  146  A    between atoms: _369  and  _370
REMARK  147  A    between atoms: _369  and  _372
REMARK  148  A    between atoms: _372  and  _373
REMARK  149  A    between atoms: _376  and  _378
REMARK  150  A    between atoms: _378  and  _379
REMARK  151  A    between atoms: _378  and  _381
REMARK  152  A    between atoms: _381  and  _382
REMARK  153  A    between atoms: _385  and  _387
REMARK  154  A    between atoms: _387  and  _388
REMARK  155  A    between atoms: _387  and  _390
REMARK  156  A    between atoms: _393  and  _395
REMARK  157  A    between atoms: _395  and  _396
REMARK  158  A    between atoms: _395  and  _398
REMARK  159  A    between atoms: _398  and  _399
REMARK  160  A    between atoms: _399  and  _400
REMARK  161  A    between atoms: _400  and  _401
REMARK  162  A    between atoms: _401  and  _402
REMARK  163  A    between atoms: _406  and  _408
REMARK  164  A    between atoms: _408  and  _409
REMARK  165  A    between atoms: _408  and  _411
REMARK  166  A    between atoms: _411  and  _412
REMARK  167  A    between atoms: _412  and  _413
REMARK  168  A    between atoms: _415  and  _417
REMARK  169  A    between atoms: _417  and  _418
REMARK  170  A    between atoms: _417  and  _420
REMARK  171  A    between atoms: _420  and  _421
REMARK  172  A    between atoms: _424  and  _426
REMARK  173  A    between atoms: _426  and  _427
REMARK  174  A    between atoms: _429  and  _431
REMARK  175  A    between atoms: _431  and  _432
REMARK  176  A    between atoms: _434  and  _436
REMARK  177  A    between atoms: _436  and  _437
REMARK  178  A    between atoms: _436  and  _439
REMARK  179  A    between atoms: _439  and  _440
REMARK  180  A    between atoms: _443  and  _445
REMARK  181  A    between atoms: _445  and  _446
REMARK  182  A    between atoms: _448  and  _450
REMARK  183  A    between atoms: _450  and  _451
REMARK  184  A    between atoms: _453  and  _455
REMARK  185  A    between atoms: _455  and  _456
REMARK  186  A    between atoms: _455  and  _458
REMARK  187  A    between atoms: _458  and  _459
REMARK  188  A    between atoms: _465  and  _467
REMARK  189  A    between atoms: _467  and  _468
REMARK  190  A    between atoms: _467  and  _470
REMARK  191  A    between atoms: _470  and  _471
REMARK  192  A    between atoms: _474  and  _476
REMARK  193  A    between atoms: _476  and  _477
REMARK  194  A    between atoms: _476  and  _479
REMARK  195  A    between atoms: _482  and  _484
REMARK  196  A    between atoms: _484  and  _485
REMARK  197  A    between atoms: _484  and  _487
REMARK  198  A    between atoms: _487  and  _488
REMARK  199  A    between atoms: _491  and  _493
REMARK  200  A    between atoms: _493  and  _494
REMARK  201  A    between atoms: _493  and  _496
REMARK  202  A    between atoms: _496  and  _497
REMARK  203  A    between atoms: _501  and  _502
REMARK  204  A    between atoms: _507  and  _509
REMARK  205  A    between atoms: _509  and  _510
REMARK  206  A    between atoms: _509  and  _512
REMARK  207  A    between atoms: _515  and  _517
REMARK  208  A    between atoms: _517  and  _518
REMARK  209  A    between atoms: _517  and  _520
REMARK  210  A    between atoms: _520  and  _521
REMARK  211  A    between atoms: _526  and  _528
REMARK  212  A    between atoms: _528  and  _529
REMARK  213  A    between atoms: _528  and  _531
REMARK  214  A    between atoms: _531  and  _532
REMARK  215  A    between atoms: _535  and  _537
REMARK  216  A    between atoms: _537  and  _538
REMARK  217  A    between atoms: _537  and  _540
REMARK  218  A    between atoms: _540  and  _541
REMARK  219  A    between atoms: _544  and  _546
REMARK  220  A    between atoms: _546  and  _547
REMARK  221  A    between atoms: _549  and  _551
REMARK  222  A    between atoms: _551  and  _552
REMARK  223  A    between atoms: _551  and  _554
REMARK  224  A    between atoms: _554  and  _555
REMARK  225  A    between atoms: _555  and  _556
REMARK  226  A    between atoms: _556  and  _557
REMARK  227  A    between atoms: _566  and  _568
REMARK  228  A    between atoms: _568  and  _569
REMARK  229  A    between atoms: _568  and  _571
REMARK  230  A    between atoms: _571  and  _572
REMARK                            x       y       z     vdW  Elec       q    Type
REMARK                         _______ _______ _______ _____ _____    ______ ____
ROOT
ATOM      1  O   HOH     1      16.530  23.153   7.672  0.00  0.00    +0.000 OA
ENDROOT
TORSDOF 0
REMARK  Name = ../refined-set-2016/3o9i/3o9i_pocket.pdb
REMARK  230 active torsions:
REMARK  status: ('A' for Active; 'I' for Inactive)
REMARK    1  A    between atoms: _1  and  _3
REMARK    2  A    between atoms: _3  and  _4
REMARK    3  A    between atoms: _3  and  _6
REMARK    4  A    between atoms: _6  and  _7
REMARK    5  A    between atoms: _7  and  _8
REMARK    6  A    between atoms: _8  and  _9
REMARK    7  A    between atoms: _18  and  _20
REMARK    8  A    between atoms: _20  and  _21
REMARK    9  A    between atoms: _20  and  _23
REMARK   10  A    between atoms: _23  and  _24
REMARK   11  A    between atoms: _27  and  _29
REMARK   12  A    between atoms: _29  and  _30
REMARK   13  A    between atoms: _29  and  _32
REMARK   14  A    between atoms: _32  and  _33
REMARK   15  A    between atoms: _36  and  _38
REMARK   16  A    between atoms: _38  and  _39
REMARK   17  A    between atoms: _38  and  _41
REMARK   18  A    between atoms: _41  and  _42
REMARK   19  A    between atoms: _45  and  _47
REMARK   20  A    between atoms: _47  and  _48
REMARK   21  A    between atoms: _47  and  _50
REMARK   22  A    between atoms: _50  and  _51
REMARK   23  A    between atoms: _54  and  _56
REMARK   24  A    between atoms: _56  and  _57
REMARK   25  A    between atoms: _56  and  _59
REMARK   26  A    between atoms: _59  and  _60
REMARK   27  A    between atoms: _63  and  _65
REMARK   28  A    between atoms: _65  and  _66
REMARK   29  A    between atoms: _68  and  _70
REMARK   30  A    between atoms: _70  and  _71
REMARK   31  A    between atoms: _74  and  _76
REMARK   32  A    between atoms: _76  and  _77
REMARK   33  A    between atoms: _76  and  _79
REMARK   34  A    between atoms: _79  and  _80
REMARK   35  A    between atoms: _83  and  _85
REMARK   36  A    between atoms: _85  and  _86
REMARK   37  A    between atoms: _85  and  _88
REMARK   38  A    between atoms: _88  and  _89
REMARK   39  A    between atoms: _92  and  _94
REMARK   40  A    between atoms: _94  and  _95
REMARK   41  A    between atoms: _94  and  _97
REMARK   42  A    between atoms: _97  and  _98
REMARK   43  A    between atoms: _101  and  _103
REMARK   44  A    between atoms: _103  and  _104
REMARK   45  A    between atoms: _103  and  _106
REMARK   46  A    between atoms: _109  and  _111
REMARK   47  A    between atoms: _111  and  _112
REMARK   48  A    between atoms: _111  and  _114
REMARK   49  A    between atoms: _114  and  _115
REMARK   50  A    between atoms: _118  and  _120
REMARK   51  A    between atoms: _120  and  _121
REMARK   52  A    between atoms: _123  and  _125
REMARK   53  A    between atoms: _125  and  _126
REMARK   54  A    between atoms: _128  and  _130
REMARK   55  A    between atoms: _130  and  _131
REMARK   56  A    between atoms: _130  and  _133
REMARK   57  A    between atoms: _133  and  _134
REMARK   58  A    between atoms: _137  and  _139
REMARK   59  A    between atoms: _139  and  _140
REMARK   60  A    between atoms: _142  and  _144
REMARK   61  A    between atoms: _144  and  _145
REMARK   62  A    between atoms: _147  and  _149
REMARK   63  A    between atoms: _149  and  _150
REMARK   64  A    between atoms: _149  and  _152
REMARK   65  A    between atoms: _152  and  _153
REMARK   66  A    between atoms: _159  and  _161
REMARK   67  A    between atoms: _161  and  _162
REMARK   68  A    between atoms: _161  and  _164
REMARK   69  A    between atoms: _164  and  _165
REMARK   70  A    between atoms: _168  and  _170
REMARK   71  A    between atoms: _170  and  _171
REMARK   72  A    between atoms: _170  and  _173
REMARK   73  A    between atoms: _176  and  _178
REMARK   74  A    between atoms: _178  and  _179
REMARK   75  A    between atoms: _178  and  _181
REMARK   76  A    between atoms: _181  and  _182
REMARK   77  A    between atoms: _186  and  _187
REMARK   78  A    between atoms: _192  and  _194
REMARK   79  A    between atoms: _194  and  _195
REMARK   80  A    between atoms: _194  and  _197
REMARK   81  A    between atoms: _197  and  _198
REMARK   82  A    between atoms: _202  and  _203
REMARK   83  A    between atoms: _208  and  _210
REMARK   84  A    between atoms: _210  and  _211
REMARK   85  A    between atoms: _210  and  _213
REMARK   86  A    between atoms: _216  and  _218
REMARK   87  A    between atoms: _218  and  _219
REMARK   88  A    between atoms: _218  and  _221
REMARK   89  A    between atoms: _221  and  _222
REMARK   90  A    between atoms: _227  and  _229
REMARK   91  A    between atoms: _229  and  _230
REMARK   92  A    between atoms: _229  and  _232
REMARK   93  A    between atoms: _232  and  _233
REMARK   94  A    between atoms: _236  and  _238
REMARK   95  A    between atoms: _238  and  _239
REMARK   96  A    between atoms: _238  and  _241
REMARK   97  A    between atoms: _241  and  _242
REMARK   98  A    between atoms: _245  and  _247
REMARK   99  A    between atoms: _247  and  _248
REMARK  100  A    between atoms: _250  and  _252
REMARK  101  A    between atoms: _252  and  _253
REMARK  102  A    between atoms: _252  and  _255
REMARK  103  A    between atoms: _255  and  _256
REMARK  104  A    between atoms: _256  and  _257
REMARK  105  A    between atoms: _257  and  _258
REMARK  106  A    between atoms: _267  and  _269
REMARK  107  A    between atoms: _269  and  _270
REMARK  108  A    between atoms: _269  and  _272
REMARK  109  A    between atoms: _272  and  _273
REMARK  110  A    between atoms: _278  and  _280
REMARK  111  A    between atoms: _280  and  _281
REMARK  112  A    between atoms: _280  and  _283
REMARK  113  A    between atoms: _283  and  _284
REMARK  114  A    between atoms: _284  and  _285
REMARK  115  A    between atoms: _285  and  _286
REMARK  116  A    between atoms: _296  and  _297
REMARK  117  A    between atoms: _302  and  _304
REMARK  118  A    between atoms: _304  and  _305
REMARK  119  A    between atoms: _304  and  _307
REMARK  120  A    between atoms: _307  and  _308
REMARK  121  A    between atoms: _311  and  _313
REMARK  122  A    between atoms: _313  and  _314
REMARK  123  A    between atoms: _313  and  _316
REMARK  124  A    between atoms: _316  and  _317
REMARK  125  A    between atoms: _320  and  _322
REMARK  126  A    between atoms: _322  and  _323
REMARK  127  A    between atoms: _322  and  _325
REMARK  128  A    between atoms: _325  and  _326
REMARK  129  A    between atoms: _329  and  _331
REMARK  130  A    between atoms: _331  and  _332
REMARK  131  A    between atoms: _331  and  _334
REMARK  132  A    between atoms: _334  and  _335
REMARK  133  A    between atoms: _338  and  _340
REMARK  134  A    between atoms: _340  and  _341
REMARK  135  A    between atoms: _340  and  _343
REMARK  136  A    between atoms: _343  and  _344
REMARK  137  A    between atoms: _347  and  _349
REMARK  138  A    between atoms: _349  and  _350
REMARK  139  A    between atoms: _352  and  _354
REMARK  140  A    between atoms: _354  and  _355
REMARK  141  A    between atoms: _358  and  _360
REMARK  142  A    between atoms: _360  and  _361
REMARK  143  A    between atoms: _360  and  _363
REMARK  144  A    between atoms: _363  and  _364
REMARK  145  A    between atoms: _367  and  _369
REMARK  146  A    between atoms: _369  and  _370
REMARK  147  A    between atoms: _369  and  _372
REMARK  148  A    between atoms: _372  and  _373
REMARK  149  A    between atoms: _376  and  _378
REMARK  150  A    between atoms: _378  and  _379
REMARK  151  A    between atoms: _378  and  _381
REMARK  152  A    between atoms: _381  and  _382
REMARK  153  A    between atoms: _385  and  _387
REMARK  154  A    between atoms: _387  and  _388
REMARK  155  A    between atoms: _387  and  _390
REMARK  156  A    between atoms: _393  and  _395
REMARK  157  A    between atoms: _395  and  _396
REMARK  158  A    between atoms: _395  and  _398
REMARK  159  A    between atoms: _398  and  _399
REMARK  160  A    between atoms: _399  and  _400
REMARK  161  A    between atoms: _400  and  _401
REMARK  162  A    between atoms: _401  and  _402
REMARK  163  A    between atoms: _406  and  _408
REMARK  164  A    between atoms: _408  and  _409
REMARK  165  A    between atoms: _408  and  _411
REMARK  166  A    between atoms: _411  and  _412
REMARK  167  A    between atoms: _412  and  _413
REMARK  168  A    between atoms: _415  and  _417
REMARK  169  A    between atoms: _417  and  _418
REMARK  170  A    between atoms: _417  and  _420
REMARK  171  A    between atoms: _420  and  _421
REMARK  172  A    between atoms: _424  and  _426
REMARK  173  A    between atoms: _426  and  _427
REMARK  174  A    between atoms: _429  and  _431
REMARK  175  A    between atoms: _431  and  _432
REMARK  176  A    between atoms: _434  and  _436
REMARK  177  A    between atoms: _436  and  _437
REMARK  178  A    between atoms: _436  and  _439
REMARK  179  A    between atoms: _439  and  _440
REMARK  180  A    between atoms: _443  and  _445
REMARK  181  A    between atoms: _445  and  _446
REMARK  182  A    between atoms: _448  and  _450
REMARK  183  A    between atoms: _450  and  _451
REMARK  184  A    between atoms: _453  and  _455
REMARK  185  A    between atoms: _455  and  _456
REMARK  186  A    between atoms: _455  and  _458
REMARK  187  A    between atoms: _458  and  _459
REMARK  188  A    between atoms: _465  and  _467
REMARK  189  A    between atoms: _467  and  _468
REMARK  190  A    between atoms: _467  and  _470
REMARK  191  A    between atoms: _470  and  _471
REMARK  192  A    between atoms: _474  and  _476
REMARK  193  A    between atoms: _476  and  _477
REMARK  194  A    between atoms: _476  and  _479
REMARK  195  A    between atoms: _482  and  _484
REMARK  196  A    between atoms: _484  and  _485
REMARK  197  A    between atoms: _484  and  _487
REMARK  198  A    between atoms: _487  and  _488
REMARK  199  A    between atoms: _491  and  _493
REMARK  200  A    between atoms: _493  and  _494
REMARK  201  A    between atoms: _493  and  _496
REMARK  202  A    between atoms: _496  and  _497
REMARK  203  A    between atoms: _501  and  _502
REMARK  204  A    between atoms: _507  and  _509
REMARK  205  A    between atoms: _509  and  _510
REMARK  206  A    between atoms: _509  and  _512
REMARK  207  A    between atoms: _515  and  _517
REMARK  208  A    between atoms: _517  and  _518
REMARK  209  A    between atoms: _517  and  _520
REMARK  210  A    between atoms: _520  and  _521
REMARK  211  A    between atoms: _526  and  _528
REMARK  212  A    between atoms: _528  and  _529
REMARK  213  A    between atoms: _528  and  _531
REMARK  214  A    between atoms: _531  and  _532
REMARK  215  A    between atoms: _535  and  _537
REMARK  216  A    between atoms: _537  and  _538
REMARK  217  A    between atoms: _537  and  _540
REMARK  218  A    between atoms: _540  and  _541
REMARK  219  A    between atoms: _544  and  _546
REMARK  220  A    between atoms: _546  and  _547
REMARK  221  A    between atoms: _549  and  _551
REMARK  222  A    between atoms: _551  and  _552
REMARK  223  A    between atoms: _551  and  _554
REMARK  224  A    between atoms: _554  and  _555
REMARK  225  A    between atoms: _555  and  _556
REMARK  226  A    between atoms: _556  and  _557
REMARK  227  A    between atoms: _566  and  _568
REMARK  228  A    between atoms: _568  and  _569
REMARK  229  A    between atoms: _568  and  _571
REMARK  230  A    between atoms: _571  and  _572
REMARK                            x       y       z     vdW  Elec       q    Type
REMARK                         _______ _______ _______ _____ _____    ______ ____
ROOT
ATOM      1  O   HOH     1      19.845  37.955  16.495  0.00  0.00    +0.000 OA
ENDROOT
TORSDOF 0
REMARK  Name = ../refined-set-2016/3o9i/3o9i_pocket.pdb
REMARK  230 active torsions:
REMARK  status: ('A' for Active; 'I' for Inactive)
REMARK    1  A    between atoms: _1  and  _3
REMARK    2  A    between atoms: _3  and  _4
REMARK    3  A    between atoms: _3  and  _6
REMARK    4  A    between atoms: _6  and  _7
REMARK    5  A    between atoms: _7  and  _8
REMARK    6  A    between atoms: _8  and  _9
REMARK    7  A    between atoms: _18  and  _20
REMARK    8  A    between atoms: _20  and  _21
REMARK    9  A    between atoms: _20  and  _23
REMARK   10  A    between atoms: _23  and  _24
REMARK   11  A    between atoms: _27  and  _29
REMARK   12  A    between atoms: _29  and  _30
REMARK   13  A    between atoms: _29  and  _32
REMARK   14  A    between atoms: _32  and  _33
REMARK   15  A    between atoms: _36  and  _38
REMARK   16  A    between atoms: _38  and  _39
REMARK   17  A    between atoms: _38  and  _41
REMARK   18  A    between atoms: _41  and  _42
REMARK   19  A    between atoms: _45  and  _47
REMARK   20  A    between atoms: _47  and  _48
REMARK   21  A    between atoms: _47  and  _50
REMARK   22  A    between atoms: _50  and  _51
REMARK   23  A    between atoms: _54  and  _56
REMARK   24  A    between atoms: _56  and  _57
REMARK   25  A    between atoms: _56  and  _59
REMARK   26  A    between atoms: _59  and  _60
REMARK   27  A    between atoms: _63  and  _65
REMARK   28  A    between atoms: _65  and  _66
REMARK   29  A    between atoms: _68  and  _70
REMARK   30  A    between atoms: _70  and  _71
REMARK   31  A    between atoms: _74  and  _76
REMARK   32  A    between atoms: _76  and  _77
REMARK   33  A    between atoms: _76  and  _79
REMARK   34  A    between atoms: _79  and  _80
REMARK   35  A    between atoms: _83  and  _85
REMARK   36  A    between atoms: _85  and  _86
REMARK   37  A    between atoms: _85  and  _88
REMARK   38  A    between atoms: _88  and  _89
REMARK   39  A    between atoms: _92  and  _94
REMARK   40  A    between atoms: _94  and  _95
REMARK   41  A    between atoms: _94  and  _97
REMARK   42  A    between atoms: _97  and  _98
REMARK   43  A    between atoms: _101  and  _103
REMARK   44  A    between atoms: _103  and  _104
REMARK   45  A    between atoms: _103  and  _106
REMARK   46  A    between atoms: _109  and  _111
REMARK   47  A    between atoms: _111  and  _112
REMARK   48  A    between atoms: _111  and  _114
REMARK   49  A    between atoms: _114  and  _115
REMARK   50  A    between atoms: _118  and  _120
REMARK   51  A    between atoms: _120  and  _121
REMARK   52  A    between atoms: _123  and  _125
REMARK   53  A    between atoms: _125  and  _126
REMARK   54  A    between atoms: _128  and  _130
REMARK   55  A    between atoms: _130  and  _131
REMARK   56  A    between atoms: _130  and  _133
REMARK   57  A    between atoms: _133  and  _134
REMARK   58  A    between atoms: _137  and  _139
REMARK   59  A    between atoms: _139  and  _140
REMARK   60  A    between atoms: _142  and  _144
REMARK   61  A    between atoms: _144  and  _145
REMARK   62  A    between atoms: _147  and  _149
REMARK   63  A    between atoms: _149  and  _150
REMARK   64  A    between atoms: _149  and  _152
REMARK   65  A    between atoms: _152  and  _153
REMARK   66  A    between atoms: _159  and  _161
REMARK   67  A    between atoms: _161  and  _162
REMARK   68  A    between atoms: _161  and  _164
REMARK   69  A    between atoms: _164  and  _165
REMARK   70  A    between atoms: _168  and  _170
REMARK   71  A    between atoms: _170  and  _171
REMARK   72  A    between atoms: _170  and  _173
REMARK   73  A    between atoms: _176  and  _178
REMARK   74  A    between atoms: _178  and  _179
REMARK   75  A    between atoms: _178  and  _181
REMARK   76  A    between atoms: _181  and  _182
REMARK   77  A    between atoms: _186  and  _187
REMARK   78  A    between atoms: _192  and  _194
REMARK   79  A    between atoms: _194  and  _195
REMARK   80  A    between atoms: _194  and  _197
REMARK   81  A    between atoms: _197  and  _198
REMARK   82  A    between atoms: _202  and  _203
REMARK   83  A    between atoms: _208  and  _210
REMARK   84  A    between atoms: _210  and  _211
REMARK   85  A    between atoms: _210  and  _213
REMARK   86  A    between atoms: _216  and  _218
REMARK   87  A    between atoms: _218  and  _219
REMARK   88  A    between atoms: _218  and  _221
REMARK   89  A    between atoms: _221  and  _222
REMARK   90  A    between atoms: _227  and  _229
REMARK   91  A    between atoms: _229  and  _230
REMARK   92  A    between atoms: _229  and  _232
REMARK   93  A    between atoms: _232  and  _233
REMARK   94  A    between atoms: _236  and  _238
REMARK   95  A    between atoms: _238  and  _239
REMARK   96  A    between atoms: _238  and  _241
REMARK   97  A    between atoms: _241  and  _242
REMARK   98  A    between atoms: _245  and  _247
REMARK   99  A    between atoms: _247  and  _248
REMARK  100  A    between atoms: _250  and  _252
REMARK  101  A    between atoms: _252  and  _253
REMARK  102  A    between atoms: _252  and  _255
REMARK  103  A    between atoms: _255  and  _256
REMARK  104  A    between atoms: _256  and  _257
REMARK  105  A    between atoms: _257  and  _258
REMARK  106  A    between atoms: _267  and  _269
REMARK  107  A    between atoms: _269  and  _270
REMARK  108  A    between atoms: _269  and  _272
REMARK  109  A    between atoms: _272  and  _273
REMARK  110  A    between atoms: _278  and  _280
REMARK  111  A    between atoms: _280  and  _281
REMARK  112  A    between atoms: _280  and  _283
REMARK  113  A    between atoms: _283  and  _284
REMARK  114  A    between atoms: _284  and  _285
REMARK  115  A    between atoms: _285  and  _286
REMARK  116  A    between atoms: _296  and  _297
REMARK  117  A    between atoms: _302  and  _304
REMARK  118  A    between atoms: _304  and  _305
REMARK  119  A    between atoms: _304  and  _307
REMARK  120  A    between atoms: _307  and  _308
REMARK  121  A    between atoms: _311  and  _313
REMARK  122  A    between atoms: _313  and  _314
REMARK  123  A    between atoms: _313  and  _316
REMARK  124  A    between atoms: _316  and  _317
REMARK  125  A    between atoms: _320  and  _322
REMARK  126  A    between atoms: _322  and  _323
REMARK  127  A    between atoms: _322  and  _325
REMARK  128  A    between atoms: _325  and  _326
REMARK  129  A    between atoms: _329  and  _331
REMARK  130  A    between atoms: _331  and  _332
REMARK  131  A    between atoms: _331  and  _334
REMARK  132  A    between atoms: _334  and  _335
REMARK  133  A    between atoms: _338  and  _340
REMARK  134  A    between atoms: _340  and  _341
REMARK  135  A    between atoms: _340  and  _343
REMARK  136  A    between atoms: _343  and  _344
REMARK  137  A    between atoms: _347  and  _349
REMARK  138  A    between atoms: _349  and  _350
REMARK  139  A    between atoms: _352  and  _354
REMARK  140  A    between atoms: _354  and  _355
REMARK  141  A    between atoms: _358  and  _360
REMARK  142  A    between atoms: _360  and  _361
REMARK  143  A    between atoms: _360  and  _363
REMARK  144  A    between atoms: _363  and  _364
REMARK  145  A    between atoms: _367  and  _369
REMARK  146  A    between atoms: _369  and  _370
REMARK  147  A    between atoms: _369  and  _372
REMARK  148  A    between atoms: _372  and  _373
REMARK  149  A    between atoms: _376  and  _378
REMARK  150  A    between atoms: _378  and  _379
REMARK  151  A    between atoms: _378  and  _381
REMARK  152  A    between atoms: _381  and  _382
REMARK  153  A    between atoms: _385  and  _387
REMARK  154  A    between atoms: _387  and  _388
REMARK  155  A    between atoms: _387  and  _390
REMARK  156  A    between atoms: _393  and  _395
REMARK  157  A    between atoms: _395  and  _396
REMARK  158  A    between atoms: _395  and  _398
REMARK  159  A    between atoms: _398  and  _399
REMARK  160  A    between atoms: _399  and  _400
REMARK  161  A    between atoms: _400  and  _401
REMARK  162  A    between atoms: _401  and  _402
REMARK  163  A    between atoms: _406  and  _408
REMARK  164  A    between atoms: _408  and  _409
REMARK  165  A    between atoms: _408  and  _411
REMARK  166  A    between atoms: _411  and  _412
REMARK  167  A    between atoms: _412  and  _413
REMARK  168  A    between atoms: _415  and  _417
REMARK  169  A    between atoms: _417  and  _418
REMARK  170  A    between atoms: _417  and  _420
REMARK  171  A    between atoms: _420  and  _421
REMARK  172  A    between atoms: _424  and  _426
REMARK  173  A    between atoms: _426  and  _427
REMARK  174  A    between atoms: _429  and  _431
REMARK  175  A    between atoms: _431  and  _432
REMARK  176  A    between atoms: _434  and  _436
REMARK  177  A    between atoms: _436  and  _437
REMARK  178  A    between atoms: _436  and  _439
REMARK  179  A    between atoms: _439  and  _440
REMARK  180  A    between atoms: _443  and  _445
REMARK  181  A    between atoms: _445  and  _446
REMARK  182  A    between atoms: _448  and  _450
REMARK  183  A    between atoms: _450  and  _451
REMARK  184  A    between atoms: _453  and  _455
REMARK  185  A    between atoms: _455  and  _456
REMARK  186  A    between atoms: _455  and  _458
REMARK  187  A    between atoms: _458  and  _459
REMARK  188  A    between atoms: _465  and  _467
REMARK  189  A    between atoms: _467  and  _468
REMARK  190  A    between atoms: _467  and  _470
REMARK  191  A    between atoms: _470  and  _471
REMARK  192  A    between atoms: _474  and  _476
REMARK  193  A    between atoms: _476  and  _477
REMARK  194  A    between atoms: _476  and  _479
REMARK  195  A    between atoms: _482  and  _484
REMARK  196  A    between atoms: _484  and  _485
REMARK  197  A    between atoms: _484  and  _487
REMARK  198  A    between atoms: _487  and  _488
REMARK  199  A    between atoms: _491  and  _493
REMARK  200  A    between atoms: _493  and  _494
REMARK  201  A    between atoms: _493  and  _496
REMARK  202  A    between atoms: _496  and  _497
REMARK  203  A    between atoms: _501  and  _502
REMARK  204  A    between atoms: _507  and  _509
REMARK  205  A    between atoms: _509  and  _510
REMARK  206  A    between atoms: _509  and  _512
REMARK  207  A    between atoms: _515  and  _517
REMARK  208  A    between atoms: _517  and  _518
REMARK  209  A    between atoms: _517  and  _520
REMARK  210  A    between atoms: _520  and  _521
REMARK  211  A    between atoms: _526  and  _528
REMARK  212  A    between atoms: _528  and  _529
REMARK  213  A    between atoms: _528  and  _531
REMARK  214  A    between atoms: _531  and  _532
REMARK  215  A    between atoms: _535  and  _537
REMARK  216  A    between atoms: _537  and  _538
REMARK  217  A    between atoms: _537  and  _540
REMARK  218  A    between atoms: _540  and  _541
REMARK  219  A    between atoms: _544  and  _546
REMARK  220  A    between atoms: _546  and  _547
REMARK  221  A    between atoms: _549  and  _551
REMARK  222  A    between atoms: _551  and  _552
REMARK  223  A    between atoms: _551  and  _554
REMARK  224  A    between atoms: _554  and  _555
REMARK  225  A    between atoms: _555  and  _556
REMARK  226  A    between atoms: _556  and  _557
REMARK  227  A    between atoms: _566  and  _568
REMARK  228  A    between atoms: _568  and  _569
REMARK  229  A    between atoms: _568  and  _571
REMARK  230  A    between atoms: _571  and  _572
REMARK                            x       y       z     vdW  Elec       q    Type
REMARK                         _______ _______ _______ _____ _____    ______ ____
ROOT
ATOM      1  O   HOH     1      14.438  34.911  26.040  0.00  0.00    +0.000 OA
ENDROOT
TORSDOF 0
REMARK  Name = ../refined-set-2016/3o9i/3o9i_pocket.pdb
REMARK  230 active torsions:
REMARK  status: ('A' for Active; 'I' for Inactive)
REMARK    1  A    between atoms: _1  and  _3
REMARK    2  A    between atoms: _3  and  _4
REMARK    3  A    between atoms: _3  and  _6
REMARK    4  A    between atoms: _6  and  _7
REMARK    5  A    between atoms: _7  and  _8
REMARK    6  A    between atoms: _8  and  _9
REMARK    7  A    between atoms: _18  and  _20
REMARK    8  A    between atoms: _20  and  _21
REMARK    9  A    between atoms: _20  and  _23
REMARK   10  A    between atoms: _23  and  _24
REMARK   11  A    between atoms: _27  and  _29
REMARK   12  A    between atoms: _29  and  _30
REMARK   13  A    between atoms: _29  and  _32
REMARK   14  A    between atoms: _32  and  _33
REMARK   15  A    between atoms: _36  and  _38
REMARK   16  A    between atoms: _38  and  _39
REMARK   17  A    between atoms: _38  and  _41
REMARK   18  A    between atoms: _41  and  _42
REMARK   19  A    between atoms: _45  and  _47
REMARK   20  A    between atoms: _47  and  _48
REMARK   21  A    between atoms: _47  and  _50
REMARK   22  A    between atoms: _50  and  _51
REMARK   23  A    between atoms: _54  and  _56
REMARK   24  A    between atoms: _56  and  _57
REMARK   25  A    between atoms: _56  and  _59
REMARK   26  A    between atoms: _59  and  _60
REMARK   27  A    between atoms: _63  and  _65
REMARK   28  A    between atoms: _65  and  _66
REMARK   29  A    between atoms: _68  and  _70
REMARK   30  A    between atoms: _70  and  _71
REMARK   31  A    between atoms: _74  and  _76
REMARK   32  A    between atoms: _76  and  _77
REMARK   33  A    between atoms: _76  and  _79
REMARK   34  A    between atoms: _79  and  _80
REMARK   35  A    between atoms: _83  and  _85
REMARK   36  A    between atoms: _85  and  _86
REMARK   37  A    between atoms: _85  and  _88
REMARK   38  A    between atoms: _88  and  _89
REMARK   39  A    between atoms: _92  and  _94
REMARK   40  A    between atoms: _94  and  _95
REMARK   41  A    between atoms: _94  and  _97
REMARK   42  A    between atoms: _97  and  _98
REMARK   43  A    between atoms: _101  and  _103
REMARK   44  A    between atoms: _103  and  _104
REMARK   45  A    between atoms: _103  and  _106
REMARK   46  A    between atoms: _109  and  _111
REMARK   47  A    between atoms: _111  and  _112
REMARK   48  A    between atoms: _111  and  _114
REMARK   49  A    between atoms: _114  and  _115
REMARK   50  A    between atoms: _118  and  _120
REMARK   51  A    between atoms: _120  and  _121
REMARK   52  A    between atoms: _123  and  _125
REMARK   53  A    between atoms: _125  and  _126
REMARK   54  A    between atoms: _128  and  _130
REMARK   55  A    between atoms: _130  and  _131
REMARK   56  A    between atoms: _130  and  _133
REMARK   57  A    between atoms: _133  and  _134
REMARK   58  A    between atoms: _137  and  _139
REMARK   59  A    between atoms: _139  and  _140
REMARK   60  A    between atoms: _142  and  _144
REMARK   61  A    between atoms: _144  and  _145
REMARK   62  A    between atoms: _147  and  _149
REMARK   63  A    between atoms: _149  and  _150
REMARK   64  A    between atoms: _149  and  _152
REMARK   65  A    between atoms: _152  and  _153
REMARK   66  A    between atoms: _159  and  _161
REMARK   67  A    between atoms: _161  and  _162
REMARK   68  A    between atoms: _161  and  _164
REMARK   69  A    between atoms: _164  and  _165
REMARK   70  A    between atoms: _168  and  _170
REMARK   71  A    between atoms: _170  and  _171
REMARK   72  A    between atoms: _170  and  _173
REMARK   73  A    between atoms: _176  and  _178
REMARK   74  A    between atoms: _178  and  _179
REMARK   75  A    between atoms: _178  and  _181
REMARK   76  A    between atoms: _181  and  _182
REMARK   77  A    between atoms: _186  and  _187
REMARK   78  A    between atoms: _192  and  _194
REMARK   79  A    between atoms: _194  and  _195
REMARK   80  A    between atoms: _194  and  _197
REMARK   81  A    between atoms: _197  and  _198
REMARK   82  A    between atoms: _202  and  _203
REMARK   83  A    between atoms: _208  and  _210
REMARK   84  A    between atoms: _210  and  _211
REMARK   85  A    between atoms: _210  and  _213
REMARK   86  A    between atoms: _216  and  _218
REMARK   87  A    between atoms: _218  and  _219
REMARK   88  A    between atoms: _218  and  _221
REMARK   89  A    between atoms: _221  and  _222
REMARK   90  A    between atoms: _227  and  _229
REMARK   91  A    between atoms: _229  and  _230
REMARK   92  A    between atoms: _229  and  _232
REMARK   93  A    between atoms: _232  and  _233
REMARK   94  A    between atoms: _236  and  _238
REMARK   95  A    between atoms: _238  and  _239
REMARK   96  A    between atoms: _238  and  _241
REMARK   97  A    between atoms: _241  and  _242
REMARK   98  A    between atoms: _245  and  _247
REMARK   99  A    between atoms: _247  and  _248
REMARK  100  A    between atoms: _250  and  _252
REMARK  101  A    between atoms: _252  and  _253
REMARK  102  A    between atoms: _252  and  _255
REMARK  103  A    between atoms: _255  and  _256
REMARK  104  A    between atoms: _256  and  _257
REMARK  105  A    between atoms: _257  and  _258
REMARK  106  A    between atoms: _267  and  _269
REMARK  107  A    between atoms: _269  and  _270
REMARK  108  A    between atoms: _269  and  _272
REMARK  109  A    between atoms: _272  and  _273
REMARK  110  A    between atoms: _278  and  _280
REMARK  111  A    between atoms: _280  and  _281
REMARK  112  A    between atoms: _280  and  _283
REMARK  113  A    between atoms: _283  and  _284
REMARK  114  A    between atoms: _284  and  _285
REMARK  115  A    between atoms: _285  and  _286
REMARK  116  A    between atoms: _296  and  _297
REMARK  117  A    between atoms: _302  and  _304
REMARK  118  A    between atoms: _304  and  _305
REMARK  119  A    between atoms: _304  and  _307
REMARK  120  A    between atoms: _307  and  _308
REMARK  121  A    between atoms: _311  and  _313
REMARK  122  A    between atoms: _313  and  _314
REMARK  123  A    between atoms: _313  and  _316
REMARK  124  A    between atoms: _316  and  _317
REMARK  125  A    between atoms: _320  and  _322
REMARK  126  A    between atoms: _322  and  _323
REMARK  127  A    between atoms: _322  and  _325
REMARK  128  A    between atoms: _325  and  _326
REMARK  129  A    between atoms: _329  and  _331
REMARK  130  A    between atoms: _331  and  _332
REMARK  131  A    between atoms: _331  and  _334
REMARK  132  A    between atoms: _334  and  _335
REMARK  133  A    between atoms: _338  and  _340
REMARK  134  A    between atoms: _340  and  _341
REMARK  135  A    between atoms: _340  and  _343
REMARK  136  A    between atoms: _343  and  _344
REMARK  137  A    between atoms: _347  and  _349
REMARK  138  A    between atoms: _349  and  _350
REMARK  139  A    between atoms: _352  and  _354
REMARK  140  A    between atoms: _354  and  _355
REMARK  141  A    between atoms: _358  and  _360
REMARK  142  A    between atoms: _360  and  _361
REMARK  143  A    between atoms: _360  and  _363
REMARK  144  A    between atoms: _363  and  _364
REMARK  145  A    between atoms: _367  and  _369
REMARK  146  A    between atoms: _369  and  _370
REMARK  147  A    between atoms: _369  and  _372
REMARK  148  A    between atoms: _372  and  _373
REMARK  149  A    between atoms: _376  and  _378
REMARK  150  A    between atoms: _378  and  _379
REMARK  151  A    between atoms: _378  and  _381
REMARK  152  A    between atoms: _381  and  _382
REMARK  153  A    between atoms: _385  and  _387
REMARK  154  A    between atoms: _387  and  _388
REMARK  155  A    between atoms: _387  and  _390
REMARK  156  A    between atoms: _393  and  _395
REMARK  157  A    between atoms: _395  and  _396
REMARK  158  A    between atoms: _395  and  _398
REMARK  159  A    between atoms: _398  and  _399
REMARK  160  A    between atoms: _399  and  _400
REMARK  161  A    between atoms: _400  and  _401
REMARK  162  A    between atoms: _401  and  _402
REMARK  163  A    between atoms: _406  and  _408
REMARK  164  A    between atoms: _408  and  _409
REMARK  165  A    between atoms: _408  and  _411
REMARK  166  A    between atoms: _411  and  _412
REMARK  167  A    between atoms: _412  and  _413
REMARK  168  A    between atoms: _415  and  _417
REMARK  169  A    between atoms: _417  and  _418
REMARK  170  A    between atoms: _417  and  _420
REMARK  171  A    between atoms: _420  and  _421
REMARK  172  A    between atoms: _424  and  _426
REMARK  173  A    between atoms: _426  and  _427
REMARK  174  A    between atoms: _429  and  _431
REMARK  175  A    between atoms: _431  and  _432
REMARK  176  A    between atoms: _434  and  _436
REMARK  177  A    between atoms: _436  and  _437
REMARK  178  A    between atoms: _436  and  _439
REMARK  179  A    between atoms: _439  and  _440
REMARK  180  A    between atoms: _443  and  _445
REMARK  181  A    between atoms: _445  and  _446
REMARK  182  A    between atoms: _448  and  _450
REMARK  183  A    between atoms: _450  and  _451
REMARK  184  A    between atoms: _453  and  _455
REMARK  185  A    between atoms: _455  and  _456
REMARK  186  A    between atoms: _455  and  _458
REMARK  187  A    between atoms: _458  and  _459
REMARK  188  A    between atoms: _465  and  _467
REMARK  189  A    between atoms: _467  and  _468
REMARK  190  A    between atoms: _467  and  _470
REMARK  191  A    between atoms: _470  and  _471
REMARK  192  A    between atoms: _474  and  _476
REMARK  193  A    between atoms: _476  and  _477
REMARK  194  A    between atoms: _476  and  _479
REMARK  195  A    between atoms: _482  and  _484
REMARK  196  A    between atoms: _484  and  _485
REMARK  197  A    between atoms: _484  and  _487
REMARK  198  A    between atoms: _487  and  _488
REMARK  199  A    between atoms: _491  and  _493
REMARK  200  A    between atoms: _493  and  _494
REMARK  201  A    between atoms: _493  and  _496
REMARK  202  A    between atoms: _496  and  _497
REMARK  203  A    between atoms: _501  and  _502
REMARK  204  A    between atoms: _507  and  _509
REMARK  205  A    between atoms: _509  and  _510
REMARK  206  A    between atoms: _509  and  _512
REMARK  207  A    between atoms: _515  and  _517
REMARK  208  A    between atoms: _517  and  _518
REMARK  209  A    between atoms: _517  and  _520
REMARK  210  A    between atoms: _520  and  _521
REMARK  211  A    between atoms: _526  and  _528
REMARK  212  A    between atoms: _528  and  _529
REMARK  213  A    between atoms: _528  and  _531
REMARK  214  A    between atoms: _531  and  _532
REMARK  215  A    between atoms: _535  and  _537
REMARK  216  A    between atoms: _537  and  _538
REMARK  217  A    between atoms: _537  and  _540
REMARK  218  A    between atoms: _540  and  _541
REMARK  219  A    between atoms: _544  and  _546
REMARK  220  A    between atoms: _546  and  _547
REMARK  221  A    between atoms: _549  and  _551
REMARK  222  A    between atoms: _551  and  _552
REMARK  223  A    between atoms: _551  and  _554
REMARK  224  A    between atoms: _554  and  _555
REMARK  225  A    between atoms: _555  and  _556
REMARK  226  A    between atoms: _556  and  _557
REMARK  227  A    between atoms: _566  and  _568
REMARK  228  A    between atoms: _568  and  _569
REMARK  229  A    between atoms: _568  and  _571
REMARK  230  A    between atoms: _571  and  _572
REMARK                            x       y       z     vdW  Elec       q    Type
REMARK                         _______ _______ _______ _____ _____    ______ ____
ROOT
ATOM      1  O   HOH     1      12.257  20.655  10.952  0.00  0.00    +0.000 OA
ENDROOT
TORSDOF 0
REMARK  Name = ../refined-set-2016/3o9i/3o9i_pocket.pdb
REMARK  230 active torsions:
REMARK  status: ('A' for Active; 'I' for Inactive)
REMARK    1  A    between atoms: _1  and  _3
REMARK    2  A    between atoms: _3  and  _4
REMARK    3  A    between atoms: _3  and  _6
REMARK    4  A    between atoms: _6  and  _7
REMARK    5  A    between atoms: _7  and  _8
REMARK    6  A    between atoms: _8  and  _9
REMARK    7  A    between atoms: _18  and  _20
REMARK    8  A    between atoms: _20  and  _21
REMARK    9  A    between atoms: _20  and  _23
REMARK   10  A    between atoms: _23  and  _24
REMARK   11  A    between atoms: _27  and  _29
REMARK   12  A    between atoms: _29  and  _30
REMARK   13  A    between atoms: _29  and  _32
REMARK   14  A    between atoms: _32  and  _33
REMARK   15  A    between atoms: _36  and  _38
REMARK   16  A    between atoms: _38  and  _39
REMARK   17  A    between atoms: _38  and  _41
REMARK   18  A    between atoms: _41  and  _42
REMARK   19  A    between atoms: _45  and  _47
REMARK   20  A    between atoms: _47  and  _48
REMARK   21  A    between atoms: _47  and  _50
REMARK   22  A    between atoms: _50  and  _51
REMARK   23  A    between atoms: _54  and  _56
REMARK   24  A    between atoms: _56  and  _57
REMARK   25  A    between atoms: _56  and  _59
REMARK   26  A    between atoms: _59  and  _60
REMARK   27  A    between atoms: _63  and  _65
REMARK   28  A    between atoms: _65  and  _66
REMARK   29  A    between atoms: _68  and  _70
REMARK   30  A    between atoms: _70  and  _71
REMARK   31  A    between atoms: _74  and  _76
REMARK   32  A    between atoms: _76  and  _77
REMARK   33  A    between atoms: _76  and  _79
REMARK   34  A    between atoms: _79  and  _80
REMARK   35  A    between atoms: _83  and  _85
REMARK   36  A    between atoms: _85  and  _86
REMARK   37  A    between atoms: _85  and  _88
REMARK   38  A    between atoms: _88  and  _89
REMARK   39  A    between atoms: _92  and  _94
REMARK   40  A    between atoms: _94  and  _95
REMARK   41  A    between atoms: _94  and  _97
REMARK   42  A    between atoms: _97  and  _98
REMARK   43  A    between atoms: _101  and  _103
REMARK   44  A    between atoms: _103  and  _104
REMARK   45  A    between atoms: _103  and  _106
REMARK   46  A    between atoms: _109  and  _111
REMARK   47  A    between atoms: _111  and  _112
REMARK   48  A    between atoms: _111  and  _114
REMARK   49  A    between atoms: _114  and  _115
REMARK   50  A    between atoms: _118  and  _120
REMARK   51  A    between atoms: _120  and  _121
REMARK   52  A    between atoms: _123  and  _125
REMARK   53  A    between atoms: _125  and  _126
REMARK   54  A    between atoms: _128  and  _130
REMARK   55  A    between atoms: _130  and  _131
REMARK   56  A    between atoms: _130  and  _133
REMARK   57  A    between atoms: _133  and  _134
REMARK   58  A    between atoms: _137  and  _139
REMARK   59  A    between atoms: _139  and  _140
REMARK   60  A    between atoms: _142  and  _144
REMARK   61  A    between atoms: _144  and  _145
REMARK   62  A    between atoms: _147  and  _149
REMARK   63  A    between atoms: _149  and  _150
REMARK   64  A    between atoms: _149  and  _152
REMARK   65  A    between atoms: _152  and  _153
REMARK   66  A    between atoms: _159  and  _161
REMARK   67  A    between atoms: _161  and  _162
REMARK   68  A    between atoms: _161  and  _164
REMARK   69  A    between atoms: _164  and  _165
REMARK   70  A    between atoms: _168  and  _170
REMARK   71  A    between atoms: _170  and  _171
REMARK   72  A    between atoms: _170  and  _173
REMARK   73  A    between atoms: _176  and  _178
REMARK   74  A    between atoms: _178  and  _179
REMARK   75  A    between atoms: _178  and  _181
REMARK   76  A    between atoms: _181  and  _182
REMARK   77  A    between atoms: _186  and  _187
REMARK   78  A    between atoms: _192  and  _194
REMARK   79  A    between atoms: _194  and  _195
REMARK   80  A    between atoms: _194  and  _197
REMARK   81  A    between atoms: _197  and  _198
REMARK   82  A    between atoms: _202  and  _203
REMARK   83  A    between atoms: _208  and  _210
REMARK   84  A    between atoms: _210  and  _211
REMARK   85  A    between atoms: _210  and  _213
REMARK   86  A    between atoms: _216  and  _218
REMARK   87  A    between atoms: _218  and  _219
REMARK   88  A    between atoms: _218  and  _221
REMARK   89  A    between atoms: _221  and  _222
REMARK   90  A    between atoms: _227  and  _229
REMARK   91  A    between atoms: _229  and  _230
REMARK   92  A    between atoms: _229  and  _232
REMARK   93  A    between atoms: _232  and  _233
REMARK   94  A    between atoms: _236  and  _238
REMARK   95  A    between atoms: _238  and  _239
REMARK   96  A    between atoms: _238  and  _241
REMARK   97  A    between atoms: _241  and  _242
REMARK   98  A    between atoms: _245  and  _247
REMARK   99  A    between atoms: _247  and  _248
REMARK  100  A    between atoms: _250  and  _252
REMARK  101  A    between atoms: _252  and  _253
REMARK  102  A    between atoms: _252  and  _255
REMARK  103  A    between atoms: _255  and  _256
REMARK  104  A    between atoms: _256  and  _257
REMARK  105  A    between atoms: _257  and  _258
REMARK  106  A    between atoms: _267  and  _269
REMARK  107  A    between atoms: _269  and  _270
REMARK  108  A    between atoms: _269  and  _272
REMARK  109  A    between atoms: _272  and  _273
REMARK  110  A    between atoms: _278  and  _280
REMARK  111  A    between atoms: _280  and  _281
REMARK  112  A    between atoms: _280  and  _283
REMARK  113  A    between atoms: _283  and  _284
REMARK  114  A    between atoms: _284  and  _285
REMARK  115  A    between atoms: _285  and  _286
REMARK  116  A    between atoms: _296  and  _297
REMARK  117  A    between atoms: _302  and  _304
REMARK  118  A    between atoms: _304  and  _305
REMARK  119  A    between atoms: _304  and  _307
REMARK  120  A    between atoms: _307  and  _308
REMARK  121  A    between atoms: _311  and  _313
REMARK  122  A    between atoms: _313  and  _314
REMARK  123  A    between atoms: _313  and  _316
REMARK  124  A    between atoms: _316  and  _317
REMARK  125  A    between atoms: _320  and  _322
REMARK  126  A    between atoms: _322  and  _323
REMARK  127  A    between atoms: _322  and  _325
REMARK  128  A    between atoms: _325  and  _326
REMARK  129  A    between atoms: _329  and  _331
REMARK  130  A    between atoms: _331  and  _332
REMARK  131  A    between atoms: _331  and  _334
REMARK  132  A    between atoms: _334  and  _335
REMARK  133  A    between atoms: _338  and  _340
REMARK  134  A    between atoms: _340  and  _341
REMARK  135  A    between atoms: _340  and  _343
REMARK  136  A    between atoms: _343  and  _344
REMARK  137  A    between atoms: _347  and  _349
REMARK  138  A    between atoms: _349  and  _350
REMARK  139  A    between atoms: _352  and  _354
REMARK  140  A    between atoms: _354  and  _355
REMARK  141  A    between atoms: _358  and  _360
REMARK  142  A    between atoms: _360  and  _361
REMARK  143  A    between atoms: _360  and  _363
REMARK  144  A    between atoms: _363  and  _364
REMARK  145  A    between atoms: _367  and  _369
REMARK  146  A    between atoms: _369  and  _370
REMARK  147  A    between atoms: _369  and  _372
REMARK  148  A    between atoms: _372  and  _373
REMARK  149  A    between atoms: _376  and  _378
REMARK  150  A    between atoms: _378  and  _379
REMARK  151  A    between atoms: _378  and  _381
REMARK  152  A    between atoms: _381  and  _382
REMARK  153  A    between atoms: _385  and  _387
REMARK  154  A    between atoms: _387  and  _388
REMARK  155  A    between atoms: _387  and  _390
REMARK  156  A    between atoms: _393  and  _395
REMARK  157  A    between atoms: _395  and  _396
REMARK  158  A    between atoms: _395  and  _398
REMARK  159  A    between atoms: _398  and  _399
REMARK  160  A    between atoms: _399  and  _400
REMARK  161  A    between atoms: _400  and  _401
REMARK  162  A    between atoms: _401  and  _402
REMARK  163  A    between atoms: _406  and  _408
REMARK  164  A    between atoms: _408  and  _409
REMARK  165  A    between atoms: _408  and  _411
REMARK  166  A    between atoms: _411  and  _412
REMARK  167  A    between atoms: _412  and  _413
REMARK  168  A    between atoms: _415  and  _417
REMARK  169  A    between atoms: _417  and  _418
REMARK  170  A    between atoms: _417  and  _420
REMARK  171  A    between atoms: _420  and  _421
REMARK  172  A    between atoms: _424  and  _426
REMARK  173  A    between atoms: _426  and  _427
REMARK  174  A    between atoms: _429  and  _431
REMARK  175  A    between atoms: _431  and  _432
REMARK  176  A    between atoms: _434  and  _436
REMARK  177  A    between atoms: _436  and  _437
REMARK  178  A    between atoms: _436  and  _439
REMARK  179  A    between atoms: _439  and  _440
REMARK  180  A    between atoms: _443  and  _445
REMARK  181  A    between atoms: _445  and  _446
REMARK  182  A    between atoms: _448  and  _450
REMARK  183  A    between atoms: _450  and  _451
REMARK  184  A    between atoms: _453  and  _455
REMARK  185  A    between atoms: _455  and  _456
REMARK  186  A    between atoms: _455  and  _458
REMARK  187  A    between atoms: _458  and  _459
REMARK  188  A    between atoms: _465  and  _467
REMARK  189  A    between atoms: _467  and  _468
REMARK  190  A    between atoms: _467  and  _470
REMARK  191  A    between atoms: _470  and  _471
REMARK  192  A    between atoms: _474  and  _476
REMARK  193  A    between atoms: _476  and  _477
REMARK  194  A    between atoms: _476  and  _479
REMARK  195  A    between atoms: _482  and  _484
REMARK  196  A    between atoms: _484  and  _485
REMARK  197  A    between atoms: _484  and  _487
REMARK  198  A    between atoms: _487  and  _488
REMARK  199  A    between atoms: _491  and  _493
REMARK  200  A    between atoms: _493  and  _494
REMARK  201  A    between atoms: _493  and  _496
REMARK  202  A    between atoms: _496  and  _497
REMARK  203  A    between atoms: _501  and  _502
REMARK  204  A    between atoms: _507  and  _509
REMARK  205  A    between atoms: _509  and  _510
REMARK  206  A    between atoms: _509  and  _512
REMARK  207  A    between atoms: _515  and  _517
REMARK  208  A    between atoms: _517  and  _518
REMARK  209  A    between atoms: _517  and  _520
REMARK  210  A    between atoms: _520  and  _521
REMARK  211  A    between atoms: _526  and  _528
REMARK  212  A    between atoms: _528  and  _529
REMARK  213  A    between atoms: _528  and  _531
REMARK  214  A    between atoms: _531  and  _532
REMARK  215  A    between atoms: _535  and  _537
REMARK  216  A    between atoms: _537  and  _538
REMARK  217  A    between atoms: _537  and  _540
REMARK  218  A    between atoms: _540  and  _541
REMARK  219  A    between atoms: _544  and  _546
REMARK  220  A    between atoms: _546  and  _547
REMARK  221  A    between atoms: _549  and  _551
REMARK  222  A    between atoms: _551  and  _552
REMARK  223  A    between atoms: _551  and  _554
REMARK  224  A    between atoms: _554  and  _555
REMARK  225  A    between atoms: _555  and  _556
REMARK  226  A    between atoms: _556  and  _557
REMARK  227  A    between atoms: _566  and  _568
REMARK  228  A    between atoms: _568  and  _569
REMARK  229  A    between atoms: _568  and  _571
REMARK  230  A    between atoms: _571  and  _572
REMARK                            x       y       z     vdW  Elec       q    Type
REMARK                         _______ _______ _______ _____ _____    ______ ____
ROOT
ATOM      1  O   HOH     1      14.868  20.233  10.943  0.00  0.00    +0.000 OA
ENDROOT
TORSDOF 0
