REMARK  Name = ../refined-set-2016/2xc0/2xc0_pocket.pdb
REMARK  226 active torsions:
REMARK  status: ('A' for Active; 'I' for Inactive)
REMARK    1  A    between atoms: _1  and  _5
REMARK    2  A    between atoms: _5  and  _6
REMARK    3  A    between atoms: _5  and  _8
REMARK    4  A    between atoms: _8  and  _9
REMARK    5  A    between atoms: _12  and  _14
REMARK    6  A    between atoms: _14  and  _15
REMARK    7  A    between atoms: _14  and  _17
REMARK    8  A    between atoms: _20  and  _22
REMARK    9  A    between atoms: _22  and  _23
REMARK   10  A    between atoms: _22  and  _25
REMARK   11  A    between atoms: _25  and  _26
REMARK   12  A    between atoms: _26  and  _55
REMARK   13  A    between atoms: _27  and  _29
REMARK   14  A    between atoms: _29  and  _30
REMARK   15  A    between atoms: _32  and  _34
REMARK   16  A    between atoms: _34  and  _35
REMARK   17  A    between atoms: _38  and  _40
REMARK   18  A    between atoms: _40  and  _41
REMARK   19  A    between atoms: _40  and  _43
REMARK   20  A    between atoms: _43  and  _44
REMARK   21  A    between atoms: _49  and  _51
REMARK   22  A    between atoms: _51  and  _52
REMARK   23  A    between atoms: _51  and  _54
REMARK   24  A    between atoms: _54  and  _55
REMARK   25  A    between atoms: _56  and  _58
REMARK   26  A    between atoms: _58  and  _59
REMARK   27  A    between atoms: _58  and  _61
REMARK   28  A    between atoms: _61  and  _62
REMARK   29  A    between atoms: _62  and  _63
REMARK   30  A    between atoms: _68  and  _70
REMARK   31  A    between atoms: _70  and  _71
REMARK   32  A    between atoms: _70  and  _73
REMARK   33  A    between atoms: _73  and  _74
REMARK   34  A    between atoms: _80  and  _82
REMARK   35  A    between atoms: _82  and  _83
REMARK   36  A    between atoms: _82  and  _85
REMARK   37  A    between atoms: _85  and  _86
REMARK   38  A    between atoms: _89  and  _91
REMARK   39  A    between atoms: _91  and  _92
REMARK   40  A    between atoms: _91  and  _94
REMARK   41  A    between atoms: _94  and  _95
REMARK   42  A    between atoms: _95  and  _96
REMARK   43  A    between atoms: _96  and  _97
REMARK   44  A    between atoms: _97  and  _98
REMARK   45  A    between atoms: _102  and  _104
REMARK   46  A    between atoms: _104  and  _105
REMARK   47  A    between atoms: _104  and  _107
REMARK   48  A    between atoms: _107  and  _108
REMARK   49  A    between atoms: _108  and  _109
REMARK   50  A    between atoms: _112  and  _114
REMARK   51  A    between atoms: _114  and  _115
REMARK   52  A    between atoms: _114  and  _117
REMARK   53  A    between atoms: _117  and  _118
REMARK   54  A    between atoms: _121  and  _123
REMARK   55  A    between atoms: _123  and  _124
REMARK   56  A    between atoms: _123  and  _126
REMARK   57  A    between atoms: _126  and  _127
REMARK   58  A    between atoms: _132  and  _133
REMARK   59  A    between atoms: _135  and  _137
REMARK   60  A    between atoms: _137  and  _138
REMARK   61  A    between atoms: _137  and  _140
REMARK   62  A    between atoms: _140  and  _141
REMARK   63  A    between atoms: _144  and  _146
REMARK   64  A    between atoms: _146  and  _147
REMARK   65  A    between atoms: _146  and  _149
REMARK   66  A    between atoms: _149  and  _150
REMARK   67  A    between atoms: _153  and  _155
REMARK   68  A    between atoms: _155  and  _156
REMARK   69  A    between atoms: _155  and  _158
REMARK   70  A    between atoms: _161  and  _163
REMARK   71  A    between atoms: _163  and  _164
REMARK   72  A    between atoms: _163  and  _166
REMARK   73  A    between atoms: _166  and  _167
REMARK   74  A    between atoms: _167  and  _168
REMARK   75  A    between atoms: _168  and  _169
REMARK   76  A    between atoms: _178  and  _180
REMARK   77  A    between atoms: _180  and  _181
REMARK   78  A    between atoms: _180  and  _183
REMARK   79  A    between atoms: _183  and  _184
REMARK   80  A    between atoms: _189  and  _191
REMARK   81  A    between atoms: _191  and  _192
REMARK   82  A    between atoms: _191  and  _194
REMARK   83  A    between atoms: _194  and  _195
REMARK   84  A    between atoms: _195  and  _196
REMARK   85  A    between atoms: _199  and  _201
REMARK   86  A    between atoms: _201  and  _202
REMARK   87  A    between atoms: _201  and  _204
REMARK   88  A    between atoms: _204  and  _205
REMARK   89  A    between atoms: _205  and  _206
REMARK   90  A    between atoms: _206  and  _207
REMARK   91  A    between atoms: _207  and  _208
REMARK   92  A    between atoms: _212  and  _214
REMARK   93  A    between atoms: _214  and  _215
REMARK   94  A    between atoms: _217  and  _219
REMARK   95  A    between atoms: _219  and  _220
REMARK   96  A    between atoms: _219  and  _222
REMARK   97  A    between atoms: _225  and  _227
REMARK   98  A    between atoms: _227  and  _228
REMARK   99  A    between atoms: _227  and  _230
REMARK  100  A    between atoms: _230  and  _231
REMARK  101  A    between atoms: _233  and  _235
REMARK  102  A    between atoms: _235  and  _236
REMARK  103  A    between atoms: _235  and  _238
REMARK  104  A    between atoms: _238  and  _239
REMARK  105  A    between atoms: _241  and  _243
REMARK  106  A    between atoms: _243  and  _244
REMARK  107  A    between atoms: _243  and  _246
REMARK  108  A    between atoms: _246  and  _247
REMARK  109  A    between atoms: _253  and  _255
REMARK  110  A    between atoms: _255  and  _256
REMARK  111  A    between atoms: _255  and  _258
REMARK  112  A    between atoms: _258  and  _259
REMARK  113  A    between atoms: _262  and  _264
REMARK  114  A    between atoms: _264  and  _265
REMARK  115  A    between atoms: _264  and  _267
REMARK  116  A    between atoms: _267  and  _268
REMARK  117  A    between atoms: _271  and  _273
REMARK  118  A    between atoms: _273  and  _274
REMARK  119  A    between atoms: _273  and  _276
REMARK  120  A    between atoms: _276  and  _277
REMARK  121  A    between atoms: _280  and  _282
REMARK  122  A    between atoms: _282  and  _283
REMARK  123  A    between atoms: _282  and  _285
REMARK  124  A    between atoms: _285  and  _286
REMARK  125  A    between atoms: _286  and  _287
REMARK  126  A    between atoms: _289  and  _291
REMARK  127  A    between atoms: _291  and  _292
REMARK  128  A    between atoms: _291  and  _294
REMARK  129  A    between atoms: _294  and  _295
REMARK  130  A    between atoms: _301  and  _303
REMARK  131  A    between atoms: _303  and  _304
REMARK  132  A    between atoms: _303  and  _306
REMARK  133  A    between atoms: _308  and  _310
REMARK  134  A    between atoms: _310  and  _311
REMARK  135  A    between atoms: _314  and  _316
REMARK  136  A    between atoms: _316  and  _317
REMARK  137  A    between atoms: _319  and  _321
REMARK  138  A    between atoms: _321  and  _322
REMARK  139  A    between atoms: _321  and  _324
REMARK  140  A    between atoms: _324  and  _325
REMARK  141  A    between atoms: _328  and  _330
REMARK  142  A    between atoms: _330  and  _331
REMARK  143  A    between atoms: _334  and  _336
REMARK  144  A    between atoms: _336  and  _337
REMARK  145  A    between atoms: _336  and  _339
REMARK  146  A    between atoms: _339  and  _340
REMARK  147  A    between atoms: _340  and  _463
REMARK  148  A    between atoms: _341  and  _343
REMARK  149  A    between atoms: _343  and  _344
REMARK  150  A    between atoms: _343  and  _346
REMARK  151  A    between atoms: _346  and  _347
REMARK  152  A    between atoms: _347  and  _348
REMARK  153  A    between atoms: _353  and  _355
REMARK  154  A    between atoms: _355  and  _356
REMARK  155  A    between atoms: _358  and  _360
REMARK  156  A    between atoms: _360  and  _361
REMARK  157  A    between atoms: _360  and  _363
REMARK  158  A    between atoms: _363  and  _364
REMARK  159  A    between atoms: _367  and  _369
REMARK  160  A    between atoms: _369  and  _370
REMARK  161  A    between atoms: _369  and  _372
REMARK  162  A    between atoms: _372  and  _373
REMARK  163  A    between atoms: _375  and  _377
REMARK  164  A    between atoms: _377  and  _378
REMARK  165  A    between atoms: _380  and  _382
REMARK  166  A    between atoms: _382  and  _383
REMARK  167  A    between atoms: _385  and  _387
REMARK  168  A    between atoms: _387  and  _388
REMARK  169  A    between atoms: _387  and  _390
REMARK  170  A    between atoms: _390  and  _391
REMARK  171  A    between atoms: _396  and  _398
REMARK  172  A    between atoms: _398  and  _399
REMARK  173  A    between atoms: _398  and  _401
REMARK  174  A    between atoms: _401  and  _402
REMARK  175  A    between atoms: _405  and  _407
REMARK  176  A    between atoms: _407  and  _408
REMARK  177  A    between atoms: _407  and  _410
REMARK  178  A    between atoms: _413  and  _415
REMARK  179  A    between atoms: _415  and  _416
REMARK  180  A    between atoms: _415  and  _418
REMARK  181  A    between atoms: _418  and  _419
REMARK  182  A    between atoms: _421  and  _423
REMARK  183  A    between atoms: _423  and  _424
REMARK  184  A    between atoms: _423  and  _426
REMARK  185  A    between atoms: _426  and  _427
REMARK  186  A    between atoms: _437  and  _439
REMARK  187  A    between atoms: _439  and  _440
REMARK  188  A    between atoms: _442  and  _444
REMARK  189  A    between atoms: _444  and  _445
REMARK  190  A    between atoms: _444  and  _447
REMARK  191  A    between atoms: _447  and  _448
REMARK  192  A    between atoms: _448  and  _449
REMARK  193  A    between atoms: _452  and  _454
REMARK  194  A    between atoms: _454  and  _455
REMARK  195  A    between atoms: _457  and  _459
REMARK  196  A    between atoms: _459  and  _460
REMARK  197  A    between atoms: _459  and  _462
REMARK  198  A    between atoms: _462  and  _463
REMARK  199  A    between atoms: _464  and  _466
REMARK  200  A    between atoms: _466  and  _467
REMARK  201  A    between atoms: _470  and  _472
REMARK  202  A    between atoms: _472  and  _473
REMARK  203  A    between atoms: _472  and  _475
REMARK  204  A    between atoms: _475  and  _476
REMARK  205  A    between atoms: _476  and  _477
REMARK  206  A    between atoms: _477  and  _478
REMARK  207  A    between atoms: _487  and  _489
REMARK  208  A    between atoms: _489  and  _490
REMARK  209  A    between atoms: _489  and  _492
REMARK  210  A    between atoms: _492  and  _493
REMARK  211  A    between atoms: _498  and  _499
REMARK  212  A    between atoms: _501  and  _503
REMARK  213  A    between atoms: _503  and  _504
REMARK  214  A    between atoms: _506  and  _508
REMARK  215  A    between atoms: _508  and  _509
REMARK  216  A    between atoms: _508  and  _511
REMARK  217  A    between atoms: _511  and  _512
REMARK  218  A    between atoms: _515  and  _517
REMARK  219  A    between atoms: _517  and  _518
REMARK  220  A    between atoms: _517  and  _520
REMARK  221  A    between atoms: _520  and  _521
REMARK  222  A    between atoms: _526  and  _527
REMARK  223  A    between atoms: _529  and  _531
REMARK  224  A    between atoms: _531  and  _532
REMARK  225  A    between atoms: _531  and  _534
REMARK  226  A    between atoms: _534  and  _535
REMARK                            x       y       z     vdW  Elec       q    Type
REMARK                         _______ _______ _______ _____ _____    ______ ____
ROOT
ATOM      1  C   ILE A   1      19.481  72.186   7.621  0.00  0.00    +0.202 C 
ATOM      2  N   VAL A   2      18.675  71.763   8.590  0.00  0.00    -0.301 N 
ATOM      3  H   VAL A   2      18.422  70.755   8.635  0.00  0.00    +0.150 HD
ATOM      4  O   ILE A   1      19.690  73.387   7.412  0.00  0.00    -0.277 OA
ENDROOT
BRANCH   1   5
ATOM      5  CA  ILE A   1      20.108  71.087   6.721  0.00  0.00    +0.013 C 
BRANCH   5   6
ATOM      6  N   ILE A   1      19.846  71.321   5.269  0.00  0.00    +0.387 N 
ATOM      7  H1  ILE A   1      18.820  71.328   5.100  0.00  0.00    -0.089 HD
ATOM      8  H2  ILE A   1      20.251  72.237   4.988  0.00  0.00    -0.089 HD
ATOM      9  H3  ILE A   1      20.285  70.560   4.712  0.00  0.00    -0.089 HD
ENDBRANCH   5   6
BRANCH   5  10
ATOM     10  CB  ILE A   1      21.631  70.931   7.009  0.00  0.00    -0.011 C 
ATOM     11  CG2 ILE A   1      21.902  70.703   8.511  0.00  0.00    -0.002 C 
BRANCH  10  12
ATOM     12  CG1 ILE A   1      22.281  69.863   6.105  0.00  0.00    -0.002 C 
ATOM     13  CD1 ILE A   1      22.036  68.410   6.483  0.00  0.00    -0.000 C 
ENDBRANCH  10  12
ENDBRANCH   5  10
ENDBRANCH   1   5
BRANCH   2  14
ATOM     14  CA  VAL A   2      18.133  72.684   9.599  0.00  0.00    +0.137 C 
BRANCH  14  15
ATOM     15  CB  VAL A   2      16.694  72.324  10.047  0.00  0.00    +0.026 C 
ATOM     16  CG2 VAL A   2      16.151  73.396  10.984  0.00  0.00    +0.002 C 
ATOM     17  CG1 VAL A   2      15.779  72.178   8.841  0.00  0.00    +0.002 C 
ENDBRANCH  14  15
BRANCH  14  18
ATOM     18  C   VAL A   2      19.081  72.636  10.787  0.00  0.00    +0.227 C 
ATOM     19  O   VAL A   2      19.417  71.542  11.286  0.00  0.00    -0.286 OA
ENDBRANCH  14  18
ENDBRANCH   2  14
TORSDOF 7
REMARK  Name = ../refined-set-2016/2xc0/2xc0_pocket.pdb
REMARK  226 active torsions:
REMARK  status: ('A' for Active; 'I' for Inactive)
REMARK    1  A    between atoms: _1  and  _5
REMARK    2  A    between atoms: _5  and  _6
REMARK    3  A    between atoms: _5  and  _8
REMARK    4  A    between atoms: _8  and  _9
REMARK    5  A    between atoms: _12  and  _14
REMARK    6  A    between atoms: _14  and  _15
REMARK    7  A    between atoms: _14  and  _17
REMARK    8  A    between atoms: _20  and  _22
REMARK    9  A    between atoms: _22  and  _23
REMARK   10  A    between atoms: _22  and  _25
REMARK   11  A    between atoms: _25  and  _26
REMARK   12  A    between atoms: _26  and  _55
REMARK   13  A    between atoms: _27  and  _29
REMARK   14  A    between atoms: _29  and  _30
REMARK   15  A    between atoms: _32  and  _34
REMARK   16  A    between atoms: _34  and  _35
REMARK   17  A    between atoms: _38  and  _40
REMARK   18  A    between atoms: _40  and  _41
REMARK   19  A    between atoms: _40  and  _43
REMARK   20  A    between atoms: _43  and  _44
REMARK   21  A    between atoms: _49  and  _51
REMARK   22  A    between atoms: _51  and  _52
REMARK   23  A    between atoms: _51  and  _54
REMARK   24  A    between atoms: _54  and  _55
REMARK   25  A    between atoms: _56  and  _58
REMARK   26  A    between atoms: _58  and  _59
REMARK   27  A    between atoms: _58  and  _61
REMARK   28  A    between atoms: _61  and  _62
REMARK   29  A    between atoms: _62  and  _63
REMARK   30  A    between atoms: _68  and  _70
REMARK   31  A    between atoms: _70  and  _71
REMARK   32  A    between atoms: _70  and  _73
REMARK   33  A    between atoms: _73  and  _74
REMARK   34  A    between atoms: _80  and  _82
REMARK   35  A    between atoms: _82  and  _83
REMARK   36  A    between atoms: _82  and  _85
REMARK   37  A    between atoms: _85  and  _86
REMARK   38  A    between atoms: _89  and  _91
REMARK   39  A    between atoms: _91  and  _92
REMARK   40  A    between atoms: _91  and  _94
REMARK   41  A    between atoms: _94  and  _95
REMARK   42  A    between atoms: _95  and  _96
REMARK   43  A    between atoms: _96  and  _97
REMARK   44  A    between atoms: _97  and  _98
REMARK   45  A    between atoms: _102  and  _104
REMARK   46  A    between atoms: _104  and  _105
REMARK   47  A    between atoms: _104  and  _107
REMARK   48  A    between atoms: _107  and  _108
REMARK   49  A    between atoms: _108  and  _109
REMARK   50  A    between atoms: _112  and  _114
REMARK   51  A    between atoms: _114  and  _115
REMARK   52  A    between atoms: _114  and  _117
REMARK   53  A    between atoms: _117  and  _118
REMARK   54  A    between atoms: _121  and  _123
REMARK   55  A    between atoms: _123  and  _124
REMARK   56  A    between atoms: _123  and  _126
REMARK   57  A    between atoms: _126  and  _127
REMARK   58  A    between atoms: _132  and  _133
REMARK   59  A    between atoms: _135  and  _137
REMARK   60  A    between atoms: _137  and  _138
REMARK   61  A    between atoms: _137  and  _140
REMARK   62  A    between atoms: _140  and  _141
REMARK   63  A    between atoms: _144  and  _146
REMARK   64  A    between atoms: _146  and  _147
REMARK   65  A    between atoms: _146  and  _149
REMARK   66  A    between atoms: _149  and  _150
REMARK   67  A    between atoms: _153  and  _155
REMARK   68  A    between atoms: _155  and  _156
REMARK   69  A    between atoms: _155  and  _158
REMARK   70  A    between atoms: _161  and  _163
REMARK   71  A    between atoms: _163  and  _164
REMARK   72  A    between atoms: _163  and  _166
REMARK   73  A    between atoms: _166  and  _167
REMARK   74  A    between atoms: _167  and  _168
REMARK   75  A    between atoms: _168  and  _169
REMARK   76  A    between atoms: _178  and  _180
REMARK   77  A    between atoms: _180  and  _181
REMARK   78  A    between atoms: _180  and  _183
REMARK   79  A    between atoms: _183  and  _184
REMARK   80  A    between atoms: _189  and  _191
REMARK   81  A    between atoms: _191  and  _192
REMARK   82  A    between atoms: _191  and  _194
REMARK   83  A    between atoms: _194  and  _195
REMARK   84  A    between atoms: _195  and  _196
REMARK   85  A    between atoms: _199  and  _201
REMARK   86  A    between atoms: _201  and  _202
REMARK   87  A    between atoms: _201  and  _204
REMARK   88  A    between atoms: _204  and  _205
REMARK   89  A    between atoms: _205  and  _206
REMARK   90  A    between atoms: _206  and  _207
REMARK   91  A    between atoms: _207  and  _208
REMARK   92  A    between atoms: _212  and  _214
REMARK   93  A    between atoms: _214  and  _215
REMARK   94  A    between atoms: _217  and  _219
REMARK   95  A    between atoms: _219  and  _220
REMARK   96  A    between atoms: _219  and  _222
REMARK   97  A    between atoms: _225  and  _227
REMARK   98  A    between atoms: _227  and  _228
REMARK   99  A    between atoms: _227  and  _230
REMARK  100  A    between atoms: _230  and  _231
REMARK  101  A    between atoms: _233  and  _235
REMARK  102  A    between atoms: _235  and  _236
REMARK  103  A    between atoms: _235  and  _238
REMARK  104  A    between atoms: _238  and  _239
REMARK  105  A    between atoms: _241  and  _243
REMARK  106  A    between atoms: _243  and  _244
REMARK  107  A    between atoms: _243  and  _246
REMARK  108  A    between atoms: _246  and  _247
REMARK  109  A    between atoms: _253  and  _255
REMARK  110  A    between atoms: _255  and  _256
REMARK  111  A    between atoms: _255  and  _258
REMARK  112  A    between atoms: _258  and  _259
REMARK  113  A    between atoms: _262  and  _264
REMARK  114  A    between atoms: _264  and  _265
REMARK  115  A    between atoms: _264  and  _267
REMARK  116  A    between atoms: _267  and  _268
REMARK  117  A    between atoms: _271  and  _273
REMARK  118  A    between atoms: _273  and  _274
REMARK  119  A    between atoms: _273  and  _276
REMARK  120  A    between atoms: _276  and  _277
REMARK  121  A    between atoms: _280  and  _282
REMARK  122  A    between atoms: _282  and  _283
REMARK  123  A    between atoms: _282  and  _285
REMARK  124  A    between atoms: _285  and  _286
REMARK  125  A    between atoms: _286  and  _287
REMARK  126  A    between atoms: _289  and  _291
REMARK  127  A    between atoms: _291  and  _292
REMARK  128  A    between atoms: _291  and  _294
REMARK  129  A    between atoms: _294  and  _295
REMARK  130  A    between atoms: _301  and  _303
REMARK  131  A    between atoms: _303  and  _304
REMARK  132  A    between atoms: _303  and  _306
REMARK  133  A    between atoms: _308  and  _310
REMARK  134  A    between atoms: _310  and  _311
REMARK  135  A    between atoms: _314  and  _316
REMARK  136  A    between atoms: _316  and  _317
REMARK  137  A    between atoms: _319  and  _321
REMARK  138  A    between atoms: _321  and  _322
REMARK  139  A    between atoms: _321  and  _324
REMARK  140  A    between atoms: _324  and  _325
REMARK  141  A    between atoms: _328  and  _330
REMARK  142  A    between atoms: _330  and  _331
REMARK  143  A    between atoms: _334  and  _336
REMARK  144  A    between atoms: _336  and  _337
REMARK  145  A    between atoms: _336  and  _339
REMARK  146  A    between atoms: _339  and  _340
REMARK  147  A    between atoms: _340  and  _463
REMARK  148  A    between atoms: _341  and  _343
REMARK  149  A    between atoms: _343  and  _344
REMARK  150  A    between atoms: _343  and  _346
REMARK  151  A    between atoms: _346  and  _347
REMARK  152  A    between atoms: _347  and  _348
REMARK  153  A    between atoms: _353  and  _355
REMARK  154  A    between atoms: _355  and  _356
REMARK  155  A    between atoms: _358  and  _360
REMARK  156  A    between atoms: _360  and  _361
REMARK  157  A    between atoms: _360  and  _363
REMARK  158  A    between atoms: _363  and  _364
REMARK  159  A    between atoms: _367  and  _369
REMARK  160  A    between atoms: _369  and  _370
REMARK  161  A    between atoms: _369  and  _372
REMARK  162  A    between atoms: _372  and  _373
REMARK  163  A    between atoms: _375  and  _377
REMARK  164  A    between atoms: _377  and  _378
REMARK  165  A    between atoms: _380  and  _382
REMARK  166  A    between atoms: _382  and  _383
REMARK  167  A    between atoms: _385  and  _387
REMARK  168  A    between atoms: _387  and  _388
REMARK  169  A    between atoms: _387  and  _390
REMARK  170  A    between atoms: _390  and  _391
REMARK  171  A    between atoms: _396  and  _398
REMARK  172  A    between atoms: _398  and  _399
REMARK  173  A    between atoms: _398  and  _401
REMARK  174  A    between atoms: _401  and  _402
REMARK  175  A    between atoms: _405  and  _407
REMARK  176  A    between atoms: _407  and  _408
REMARK  177  A    between atoms: _407  and  _410
REMARK  178  A    between atoms: _413  and  _415
REMARK  179  A    between atoms: _415  and  _416
REMARK  180  A    between atoms: _415  and  _418
REMARK  181  A    between atoms: _418  and  _419
REMARK  182  A    between atoms: _421  and  _423
REMARK  183  A    between atoms: _423  and  _424
REMARK  184  A    between atoms: _423  and  _426
REMARK  185  A    between atoms: _426  and  _427
REMARK  186  A    between atoms: _437  and  _439
REMARK  187  A    between atoms: _439  and  _440
REMARK  188  A    between atoms: _442  and  _444
REMARK  189  A    between atoms: _444  and  _445
REMARK  190  A    between atoms: _444  and  _447
REMARK  191  A    between atoms: _447  and  _448
REMARK  192  A    between atoms: _448  and  _449
REMARK  193  A    between atoms: _452  and  _454
REMARK  194  A    between atoms: _454  and  _455
REMARK  195  A    between atoms: _457  and  _459
REMARK  196  A    between atoms: _459  and  _460
REMARK  197  A    between atoms: _459  and  _462
REMARK  198  A    between atoms: _462  and  _463
REMARK  199  A    between atoms: _464  and  _466
REMARK  200  A    between atoms: _466  and  _467
REMARK  201  A    between atoms: _470  and  _472
REMARK  202  A    between atoms: _472  and  _473
REMARK  203  A    between atoms: _472  and  _475
REMARK  204  A    between atoms: _475  and  _476
REMARK  205  A    between atoms: _476  and  _477
REMARK  206  A    between atoms: _477  and  _478
REMARK  207  A    between atoms: _487  and  _489
REMARK  208  A    between atoms: _489  and  _490
REMARK  209  A    between atoms: _489  and  _492
REMARK  210  A    between atoms: _492  and  _493
REMARK  211  A    between atoms: _498  and  _499
REMARK  212  A    between atoms: _501  and  _503
REMARK  213  A    between atoms: _503  and  _504
REMARK  214  A    between atoms: _506  and  _508
REMARK  215  A    between atoms: _508  and  _509
REMARK  216  A    between atoms: _508  and  _511
REMARK  217  A    between atoms: _511  and  _512
REMARK  218  A    between atoms: _515  and  _517
REMARK  219  A    between atoms: _517  and  _518
REMARK  220  A    between atoms: _517  and  _520
REMARK  221  A    between atoms: _520  and  _521
REMARK  222  A    between atoms: _526  and  _527
REMARK  223  A    between atoms: _529  and  _531
REMARK  224  A    between atoms: _531  and  _532
REMARK  225  A    between atoms: _531  and  _534
REMARK  226  A    between atoms: _534  and  _535
REMARK                            x       y       z     vdW  Elec       q    Type
REMARK                         _______ _______ _______ _____ _____    ______ ____
ROOT
ATOM      1  CA  CYS A   2      15.626  61.389  -6.200  0.00  0.00    +0.149 C 
ENDROOT
BRANCH   1   2
ATOM      2  N   CYS A   2      15.022  60.240  -5.532  0.00  0.00    -0.297 N 
ATOM      3  H   CYS A   2      15.624  59.606  -4.968  0.00  0.00    +0.150 HD
ATOM      4  C   HIS A   1      13.715  59.984  -5.628  0.00  0.00    +0.239 C 
ATOM      5  O   HIS A   1      12.935  60.706  -6.236  0.00  0.00    -0.274 OA
BRANCH   4   6
ATOM      6  CA  HIS A   1      13.210  58.721  -4.952  0.00  0.00    +0.151 C 
BRANCH   6   7
ATOM      7  N   HIS A   1      14.280  57.742  -4.733  0.00  0.00    -0.238 NA
ATOM      8  H   HIS A   1      14.587  57.514  -3.766  0.00  0.00    +0.142 HD
ENDBRANCH   6   7
BRANCH   6   9
ATOM      9  CB  HIS A   1      12.437  59.055  -3.665  0.00  0.00    +0.074 C 
BRANCH   9  10
ATOM     10  CG  HIS A   1      13.133  60.029  -2.769  0.00  0.00    +0.082 A 
ATOM     11  ND1 HIS A   1      13.916  59.634  -1.710  0.00  0.00    -0.227 NA
ATOM     12  CE1 HIS A   1      14.405  60.703  -1.106  0.00  0.00    +0.199 A 
ATOM     13  NE2 HIS A   1      13.952  61.776  -1.729  0.00  0.00    -0.221 NA
ATOM     14  CD2 HIS A   1      13.157  61.380  -2.774  0.00  0.00    +0.115 A 
ENDBRANCH   9  10
ENDBRANCH   6   9
ENDBRANCH   4   6
ENDBRANCH   1   2
BRANCH   1  15
ATOM     15  C   CYS A   2      15.570  61.314  -7.735  0.00  0.00    +0.228 C 
ATOM     16  O   CYS A   2      15.573  62.357  -8.398  0.00  0.00    -0.286 OA
ENDBRANCH   1  15
BRANCH   1  17
ATOM     17  CB  CYS A   2      17.075  61.601  -5.736  0.00  0.00    +0.096 C 
BRANCH  17  18
ATOM     18  SG  CYS A   2      17.149  62.277  -4.064  0.00  0.00    -0.080 S 
BRANCH  18  19
ATOM     19  SG  HIS A   1      17.061  64.320  -4.416  0.00  0.00    -0.080 S 
BRANCH  19  20
ATOM     20  CB  HIS A   1      18.810  64.772  -4.816  0.00  0.00    +0.095 C 
BRANCH  20  21
ATOM     21  CA  HIS A   1      19.340  66.072  -4.152  0.00  0.00    +0.156 C 
BRANCH  21  22
ATOM     22  C   HIS A   1      20.836  65.935  -3.900  0.00  0.00    +0.239 C 
ATOM     23  N   CYS A   2      21.178  65.205  -2.845  0.00  0.00    -0.297 N 
ATOM     24  H   CYS A   2      20.433  64.858  -2.207  0.00  0.00    +0.150 HD
ATOM     25  O   HIS A   1      21.669  66.496  -4.642  0.00  0.00    -0.274 OA
BRANCH  23  26
ATOM     26  CA  CYS A   2      22.570  64.876  -2.556  0.00  0.00    +0.163 C 
BRANCH  26  27
ATOM     27  C   CYS A   2      22.940  63.492  -3.079  0.00  0.00    +0.229 C 
ATOM     28  O   CYS A   2      22.127  62.783  -3.698  0.00  0.00    -0.286 OA
ENDBRANCH  26  27
ENDBRANCH  23  26
ENDBRANCH  21  22
BRANCH  21  29
ATOM     29  N   HIS A   1      19.095  67.257  -4.984  0.00  0.00    -0.237 NA
ATOM     30  H   HIS A   1      19.867  67.608  -5.586  0.00  0.00    +0.142 HD
ENDBRANCH  21  29
ENDBRANCH  20  21
ENDBRANCH  19  20
ENDBRANCH  18  19
ENDBRANCH  17  18
ENDBRANCH   1  17
TORSDOF 15
REMARK  Name = ../refined-set-2016/2xc0/2xc0_pocket.pdb
REMARK  226 active torsions:
REMARK  status: ('A' for Active; 'I' for Inactive)
REMARK    1  A    between atoms: _1  and  _5
REMARK    2  A    between atoms: _5  and  _6
REMARK    3  A    between atoms: _5  and  _8
REMARK    4  A    between atoms: _8  and  _9
REMARK    5  A    between atoms: _12  and  _14
REMARK    6  A    between atoms: _14  and  _15
REMARK    7  A    between atoms: _14  and  _17
REMARK    8  A    between atoms: _20  and  _22
REMARK    9  A    between atoms: _22  and  _23
REMARK   10  A    between atoms: _22  and  _25
REMARK   11  A    between atoms: _25  and  _26
REMARK   12  A    between atoms: _26  and  _55
REMARK   13  A    between atoms: _27  and  _29
REMARK   14  A    between atoms: _29  and  _30
REMARK   15  A    between atoms: _32  and  _34
REMARK   16  A    between atoms: _34  and  _35
REMARK   17  A    between atoms: _38  and  _40
REMARK   18  A    between atoms: _40  and  _41
REMARK   19  A    between atoms: _40  and  _43
REMARK   20  A    between atoms: _43  and  _44
REMARK   21  A    between atoms: _49  and  _51
REMARK   22  A    between atoms: _51  and  _52
REMARK   23  A    between atoms: _51  and  _54
REMARK   24  A    between atoms: _54  and  _55
REMARK   25  A    between atoms: _56  and  _58
REMARK   26  A    between atoms: _58  and  _59
REMARK   27  A    between atoms: _58  and  _61
REMARK   28  A    between atoms: _61  and  _62
REMARK   29  A    between atoms: _62  and  _63
REMARK   30  A    between atoms: _68  and  _70
REMARK   31  A    between atoms: _70  and  _71
REMARK   32  A    between atoms: _70  and  _73
REMARK   33  A    between atoms: _73  and  _74
REMARK   34  A    between atoms: _80  and  _82
REMARK   35  A    between atoms: _82  and  _83
REMARK   36  A    between atoms: _82  and  _85
REMARK   37  A    between atoms: _85  and  _86
REMARK   38  A    between atoms: _89  and  _91
REMARK   39  A    between atoms: _91  and  _92
REMARK   40  A    between atoms: _91  and  _94
REMARK   41  A    between atoms: _94  and  _95
REMARK   42  A    between atoms: _95  and  _96
REMARK   43  A    between atoms: _96  and  _97
REMARK   44  A    between atoms: _97  and  _98
REMARK   45  A    between atoms: _102  and  _104
REMARK   46  A    between atoms: _104  and  _105
REMARK   47  A    between atoms: _104  and  _107
REMARK   48  A    between atoms: _107  and  _108
REMARK   49  A    between atoms: _108  and  _109
REMARK   50  A    between atoms: _112  and  _114
REMARK   51  A    between atoms: _114  and  _115
REMARK   52  A    between atoms: _114  and  _117
REMARK   53  A    between atoms: _117  and  _118
REMARK   54  A    between atoms: _121  and  _123
REMARK   55  A    between atoms: _123  and  _124
REMARK   56  A    between atoms: _123  and  _126
REMARK   57  A    between atoms: _126  and  _127
REMARK   58  A    between atoms: _132  and  _133
REMARK   59  A    between atoms: _135  and  _137
REMARK   60  A    between atoms: _137  and  _138
REMARK   61  A    between atoms: _137  and  _140
REMARK   62  A    between atoms: _140  and  _141
REMARK   63  A    between atoms: _144  and  _146
REMARK   64  A    between atoms: _146  and  _147
REMARK   65  A    between atoms: _146  and  _149
REMARK   66  A    between atoms: _149  and  _150
REMARK   67  A    between atoms: _153  and  _155
REMARK   68  A    between atoms: _155  and  _156
REMARK   69  A    between atoms: _155  and  _158
REMARK   70  A    between atoms: _161  and  _163
REMARK   71  A    between atoms: _163  and  _164
REMARK   72  A    between atoms: _163  and  _166
REMARK   73  A    between atoms: _166  and  _167
REMARK   74  A    between atoms: _167  and  _168
REMARK   75  A    between atoms: _168  and  _169
REMARK   76  A    between atoms: _178  and  _180
REMARK   77  A    between atoms: _180  and  _181
REMARK   78  A    between atoms: _180  and  _183
REMARK   79  A    between atoms: _183  and  _184
REMARK   80  A    between atoms: _189  and  _191
REMARK   81  A    between atoms: _191  and  _192
REMARK   82  A    between atoms: _191  and  _194
REMARK   83  A    between atoms: _194  and  _195
REMARK   84  A    between atoms: _195  and  _196
REMARK   85  A    between atoms: _199  and  _201
REMARK   86  A    between atoms: _201  and  _202
REMARK   87  A    between atoms: _201  and  _204
REMARK   88  A    between atoms: _204  and  _205
REMARK   89  A    between atoms: _205  and  _206
REMARK   90  A    between atoms: _206  and  _207
REMARK   91  A    between atoms: _207  and  _208
REMARK   92  A    between atoms: _212  and  _214
REMARK   93  A    between atoms: _214  and  _215
REMARK   94  A    between atoms: _217  and  _219
REMARK   95  A    between atoms: _219  and  _220
REMARK   96  A    between atoms: _219  and  _222
REMARK   97  A    between atoms: _225  and  _227
REMARK   98  A    between atoms: _227  and  _228
REMARK   99  A    between atoms: _227  and  _230
REMARK  100  A    between atoms: _230  and  _231
REMARK  101  A    between atoms: _233  and  _235
REMARK  102  A    between atoms: _235  and  _236
REMARK  103  A    between atoms: _235  and  _238
REMARK  104  A    between atoms: _238  and  _239
REMARK  105  A    between atoms: _241  and  _243
REMARK  106  A    between atoms: _243  and  _244
REMARK  107  A    between atoms: _243  and  _246
REMARK  108  A    between atoms: _246  and  _247
REMARK  109  A    between atoms: _253  and  _255
REMARK  110  A    between atoms: _255  and  _256
REMARK  111  A    between atoms: _255  and  _258
REMARK  112  A    between atoms: _258  and  _259
REMARK  113  A    between atoms: _262  and  _264
REMARK  114  A    between atoms: _264  and  _265
REMARK  115  A    between atoms: _264  and  _267
REMARK  116  A    between atoms: _267  and  _268
REMARK  117  A    between atoms: _271  and  _273
REMARK  118  A    between atoms: _273  and  _274
REMARK  119  A    between atoms: _273  and  _276
REMARK  120  A    between atoms: _276  and  _277
REMARK  121  A    between atoms: _280  and  _282
REMARK  122  A    between atoms: _282  and  _283
REMARK  123  A    between atoms: _282  and  _285
REMARK  124  A    between atoms: _285  and  _286
REMARK  125  A    between atoms: _286  and  _287
REMARK  126  A    between atoms: _289  and  _291
REMARK  127  A    between atoms: _291  and  _292
REMARK  128  A    between atoms: _291  and  _294
REMARK  129  A    between atoms: _294  and  _295
REMARK  130  A    between atoms: _301  and  _303
REMARK  131  A    between atoms: _303  and  _304
REMARK  132  A    between atoms: _303  and  _306
REMARK  133  A    between atoms: _308  and  _310
REMARK  134  A    between atoms: _310  and  _311
REMARK  135  A    between atoms: _314  and  _316
REMARK  136  A    between atoms: _316  and  _317
REMARK  137  A    between atoms: _319  and  _321
REMARK  138  A    between atoms: _321  and  _322
REMARK  139  A    between atoms: _321  and  _324
REMARK  140  A    between atoms: _324  and  _325
REMARK  141  A    between atoms: _328  and  _330
REMARK  142  A    between atoms: _330  and  _331
REMARK  143  A    between atoms: _334  and  _336
REMARK  144  A    between atoms: _336  and  _337
REMARK  145  A    between atoms: _336  and  _339
REMARK  146  A    between atoms: _339  and  _340
REMARK  147  A    between atoms: _340  and  _463
REMARK  148  A    between atoms: _341  and  _343
REMARK  149  A    between atoms: _343  and  _344
REMARK  150  A    between atoms: _343  and  _346
REMARK  151  A    between atoms: _346  and  _347
REMARK  152  A    between atoms: _347  and  _348
REMARK  153  A    between atoms: _353  and  _355
REMARK  154  A    between atoms: _355  and  _356
REMARK  155  A    between atoms: _358  and  _360
REMARK  156  A    between atoms: _360  and  _361
REMARK  157  A    between atoms: _360  and  _363
REMARK  158  A    between atoms: _363  and  _364
REMARK  159  A    between atoms: _367  and  _369
REMARK  160  A    between atoms: _369  and  _370
REMARK  161  A    between atoms: _369  and  _372
REMARK  162  A    between atoms: _372  and  _373
REMARK  163  A    between atoms: _375  and  _377
REMARK  164  A    between atoms: _377  and  _378
REMARK  165  A    between atoms: _380  and  _382
REMARK  166  A    between atoms: _382  and  _383
REMARK  167  A    between atoms: _385  and  _387
REMARK  168  A    between atoms: _387  and  _388
REMARK  169  A    between atoms: _387  and  _390
REMARK  170  A    between atoms: _390  and  _391
REMARK  171  A    between atoms: _396  and  _398
REMARK  172  A    between atoms: _398  and  _399
REMARK  173  A    between atoms: _398  and  _401
REMARK  174  A    between atoms: _401  and  _402
REMARK  175  A    between atoms: _405  and  _407
REMARK  176  A    between atoms: _407  and  _408
REMARK  177  A    between atoms: _407  and  _410
REMARK  178  A    between atoms: _413  and  _415
REMARK  179  A    between atoms: _415  and  _416
REMARK  180  A    between atoms: _415  and  _418
REMARK  181  A    between atoms: _418  and  _419
REMARK  182  A    between atoms: _421  and  _423
REMARK  183  A    between atoms: _423  and  _424
REMARK  184  A    between atoms: _423  and  _426
REMARK  185  A    between atoms: _426  and  _427
REMARK  186  A    between atoms: _437  and  _439
REMARK  187  A    between atoms: _439  and  _440
REMARK  188  A    between atoms: _442  and  _444
REMARK  189  A    between atoms: _444  and  _445
REMARK  190  A    between atoms: _444  and  _447
REMARK  191  A    between atoms: _447  and  _448
REMARK  192  A    between atoms: _448  and  _449
REMARK  193  A    between atoms: _452  and  _454
REMARK  194  A    between atoms: _454  and  _455
REMARK  195  A    between atoms: _457  and  _459
REMARK  196  A    between atoms: _459  and  _460
REMARK  197  A    between atoms: _459  and  _462
REMARK  198  A    between atoms: _462  and  _463
REMARK  199  A    between atoms: _464  and  _466
REMARK  200  A    between atoms: _466  and  _467
REMARK  201  A    between atoms: _470  and  _472
REMARK  202  A    between atoms: _472  and  _473
REMARK  203  A    between atoms: _472  and  _475
REMARK  204  A    between atoms: _475  and  _476
REMARK  205  A    between atoms: _476  and  _477
REMARK  206  A    between atoms: _477  and  _478
REMARK  207  A    between atoms: _487  and  _489
REMARK  208  A    between atoms: _489  and  _490
REMARK  209  A    between atoms: _489  and  _492
REMARK  210  A    between atoms: _492  and  _493
REMARK  211  A    between atoms: _498  and  _499
REMARK  212  A    between atoms: _501  and  _503
REMARK  213  A    between atoms: _503  and  _504
REMARK  214  A    between atoms: _506  and  _508
REMARK  215  A    between atoms: _508  and  _509
REMARK  216  A    between atoms: _508  and  _511
REMARK  217  A    between atoms: _511  and  _512
REMARK  218  A    between atoms: _515  and  _517
REMARK  219  A    between atoms: _517  and  _518
REMARK  220  A    between atoms: _517  and  _520
REMARK  221  A    between atoms: _520  and  _521
REMARK  222  A    between atoms: _526  and  _527
REMARK  223  A    between atoms: _529  and  _531
REMARK  224  A    between atoms: _531  and  _532
REMARK  225  A    between atoms: _531  and  _534
REMARK  226  A    between atoms: _534  and  _535
REMARK                            x       y       z     vdW  Elec       q    Type
REMARK                         _______ _______ _______ _____ _____    ______ ____
ROOT
ATOM      1  CA  ALA A   1      18.223  57.760  -2.977  0.00  0.00    +0.133 C 
ATOM      2  CB  ALA A   1      17.422  58.775  -2.085  0.00  0.00    +0.027 C 
ENDROOT
BRANCH   1   3
ATOM      3  N   ALA A   1      19.504  58.349  -3.344  0.00  0.00    -0.239 NA
ATOM      4  H   ALA A   1      19.562  59.369  -3.539  0.00  0.00    +0.142 HD
ENDBRANCH   1   3
BRANCH   1   5
ATOM      5  C   ALA A   1      17.482  57.466  -4.269  0.00  0.00    +0.224 C 
ATOM      6  O   ALA A   1      17.541  58.272  -5.204  0.00  0.00    -0.287 OA
ENDBRANCH   1   5
TORSDOF 2
REMARK  Name = ../refined-set-2016/2xc0/2xc0_pocket.pdb
REMARK  226 active torsions:
REMARK  status: ('A' for Active; 'I' for Inactive)
REMARK    1  A    between atoms: _1  and  _5
REMARK    2  A    between atoms: _5  and  _6
REMARK    3  A    between atoms: _5  and  _8
REMARK    4  A    between atoms: _8  and  _9
REMARK    5  A    between atoms: _12  and  _14
REMARK    6  A    between atoms: _14  and  _15
REMARK    7  A    between atoms: _14  and  _17
REMARK    8  A    between atoms: _20  and  _22
REMARK    9  A    between atoms: _22  and  _23
REMARK   10  A    between atoms: _22  and  _25
REMARK   11  A    between atoms: _25  and  _26
REMARK   12  A    between atoms: _26  and  _55
REMARK   13  A    between atoms: _27  and  _29
REMARK   14  A    between atoms: _29  and  _30
REMARK   15  A    between atoms: _32  and  _34
REMARK   16  A    between atoms: _34  and  _35
REMARK   17  A    between atoms: _38  and  _40
REMARK   18  A    between atoms: _40  and  _41
REMARK   19  A    between atoms: _40  and  _43
REMARK   20  A    between atoms: _43  and  _44
REMARK   21  A    between atoms: _49  and  _51
REMARK   22  A    between atoms: _51  and  _52
REMARK   23  A    between atoms: _51  and  _54
REMARK   24  A    between atoms: _54  and  _55
REMARK   25  A    between atoms: _56  and  _58
REMARK   26  A    between atoms: _58  and  _59
REMARK   27  A    between atoms: _58  and  _61
REMARK   28  A    between atoms: _61  and  _62
REMARK   29  A    between atoms: _62  and  _63
REMARK   30  A    between atoms: _68  and  _70
REMARK   31  A    between atoms: _70  and  _71
REMARK   32  A    between atoms: _70  and  _73
REMARK   33  A    between atoms: _73  and  _74
REMARK   34  A    between atoms: _80  and  _82
REMARK   35  A    between atoms: _82  and  _83
REMARK   36  A    between atoms: _82  and  _85
REMARK   37  A    between atoms: _85  and  _86
REMARK   38  A    between atoms: _89  and  _91
REMARK   39  A    between atoms: _91  and  _92
REMARK   40  A    between atoms: _91  and  _94
REMARK   41  A    between atoms: _94  and  _95
REMARK   42  A    between atoms: _95  and  _96
REMARK   43  A    between atoms: _96  and  _97
REMARK   44  A    between atoms: _97  and  _98
REMARK   45  A    between atoms: _102  and  _104
REMARK   46  A    between atoms: _104  and  _105
REMARK   47  A    between atoms: _104  and  _107
REMARK   48  A    between atoms: _107  and  _108
REMARK   49  A    between atoms: _108  and  _109
REMARK   50  A    between atoms: _112  and  _114
REMARK   51  A    between atoms: _114  and  _115
REMARK   52  A    between atoms: _114  and  _117
REMARK   53  A    between atoms: _117  and  _118
REMARK   54  A    between atoms: _121  and  _123
REMARK   55  A    between atoms: _123  and  _124
REMARK   56  A    between atoms: _123  and  _126
REMARK   57  A    between atoms: _126  and  _127
REMARK   58  A    between atoms: _132  and  _133
REMARK   59  A    between atoms: _135  and  _137
REMARK   60  A    between atoms: _137  and  _138
REMARK   61  A    between atoms: _137  and  _140
REMARK   62  A    between atoms: _140  and  _141
REMARK   63  A    between atoms: _144  and  _146
REMARK   64  A    between atoms: _146  and  _147
REMARK   65  A    between atoms: _146  and  _149
REMARK   66  A    between atoms: _149  and  _150
REMARK   67  A    between atoms: _153  and  _155
REMARK   68  A    between atoms: _155  and  _156
REMARK   69  A    between atoms: _155  and  _158
REMARK   70  A    between atoms: _161  and  _163
REMARK   71  A    between atoms: _163  and  _164
REMARK   72  A    between atoms: _163  and  _166
REMARK   73  A    between atoms: _166  and  _167
REMARK   74  A    between atoms: _167  and  _168
REMARK   75  A    between atoms: _168  and  _169
REMARK   76  A    between atoms: _178  and  _180
REMARK   77  A    between atoms: _180  and  _181
REMARK   78  A    between atoms: _180  and  _183
REMARK   79  A    between atoms: _183  and  _184
REMARK   80  A    between atoms: _189  and  _191
REMARK   81  A    between atoms: _191  and  _192
REMARK   82  A    between atoms: _191  and  _194
REMARK   83  A    between atoms: _194  and  _195
REMARK   84  A    between atoms: _195  and  _196
REMARK   85  A    between atoms: _199  and  _201
REMARK   86  A    between atoms: _201  and  _202
REMARK   87  A    between atoms: _201  and  _204
REMARK   88  A    between atoms: _204  and  _205
REMARK   89  A    between atoms: _205  and  _206
REMARK   90  A    between atoms: _206  and  _207
REMARK   91  A    between atoms: _207  and  _208
REMARK   92  A    between atoms: _212  and  _214
REMARK   93  A    between atoms: _214  and  _215
REMARK   94  A    between atoms: _217  and  _219
REMARK   95  A    between atoms: _219  and  _220
REMARK   96  A    between atoms: _219  and  _222
REMARK   97  A    between atoms: _225  and  _227
REMARK   98  A    between atoms: _227  and  _228
REMARK   99  A    between atoms: _227  and  _230
REMARK  100  A    between atoms: _230  and  _231
REMARK  101  A    between atoms: _233  and  _235
REMARK  102  A    between atoms: _235  and  _236
REMARK  103  A    between atoms: _235  and  _238
REMARK  104  A    between atoms: _238  and  _239
REMARK  105  A    between atoms: _241  and  _243
REMARK  106  A    between atoms: _243  and  _244
REMARK  107  A    between atoms: _243  and  _246
REMARK  108  A    between atoms: _246  and  _247
REMARK  109  A    between atoms: _253  and  _255
REMARK  110  A    between atoms: _255  and  _256
REMARK  111  A    between atoms: _255  and  _258
REMARK  112  A    between atoms: _258  and  _259
REMARK  113  A    between atoms: _262  and  _264
REMARK  114  A    between atoms: _264  and  _265
REMARK  115  A    between atoms: _264  and  _267
REMARK  116  A    between atoms: _267  and  _268
REMARK  117  A    between atoms: _271  and  _273
REMARK  118  A    between atoms: _273  and  _274
REMARK  119  A    between atoms: _273  and  _276
REMARK  120  A    between atoms: _276  and  _277
REMARK  121  A    between atoms: _280  and  _282
REMARK  122  A    between atoms: _282  and  _283
REMARK  123  A    between atoms: _282  and  _285
REMARK  124  A    between atoms: _285  and  _286
REMARK  125  A    between atoms: _286  and  _287
REMARK  126  A    between atoms: _289  and  _291
REMARK  127  A    between atoms: _291  and  _292
REMARK  128  A    between atoms: _291  and  _294
REMARK  129  A    between atoms: _294  and  _295
REMARK  130  A    between atoms: _301  and  _303
REMARK  131  A    between atoms: _303  and  _304
REMARK  132  A    between atoms: _303  and  _306
REMARK  133  A    between atoms: _308  and  _310
REMARK  134  A    between atoms: _310  and  _311
REMARK  135  A    between atoms: _314  and  _316
REMARK  136  A    between atoms: _316  and  _317
REMARK  137  A    between atoms: _319  and  _321
REMARK  138  A    between atoms: _321  and  _322
REMARK  139  A    between atoms: _321  and  _324
REMARK  140  A    between atoms: _324  and  _325
REMARK  141  A    between atoms: _328  and  _330
REMARK  142  A    between atoms: _330  and  _331
REMARK  143  A    between atoms: _334  and  _336
REMARK  144  A    between atoms: _336  and  _337
REMARK  145  A    between atoms: _336  and  _339
REMARK  146  A    between atoms: _339  and  _340
REMARK  147  A    between atoms: _340  and  _463
REMARK  148  A    between atoms: _341  and  _343
REMARK  149  A    between atoms: _343  and  _344
REMARK  150  A    between atoms: _343  and  _346
REMARK  151  A    between atoms: _346  and  _347
REMARK  152  A    between atoms: _347  and  _348
REMARK  153  A    between atoms: _353  and  _355
REMARK  154  A    between atoms: _355  and  _356
REMARK  155  A    between atoms: _358  and  _360
REMARK  156  A    between atoms: _360  and  _361
REMARK  157  A    between atoms: _360  and  _363
REMARK  158  A    between atoms: _363  and  _364
REMARK  159  A    between atoms: _367  and  _369
REMARK  160  A    between atoms: _369  and  _370
REMARK  161  A    between atoms: _369  and  _372
REMARK  162  A    between atoms: _372  and  _373
REMARK  163  A    between atoms: _375  and  _377
REMARK  164  A    between atoms: _377  and  _378
REMARK  165  A    between atoms: _380  and  _382
REMARK  166  A    between atoms: _382  and  _383
REMARK  167  A    between atoms: _385  and  _387
REMARK  168  A    between atoms: _387  and  _388
REMARK  169  A    between atoms: _387  and  _390
REMARK  170  A    between atoms: _390  and  _391
REMARK  171  A    between atoms: _396  and  _398
REMARK  172  A    between atoms: _398  and  _399
REMARK  173  A    between atoms: _398  and  _401
REMARK  174  A    between atoms: _401  and  _402
REMARK  175  A    between atoms: _405  and  _407
REMARK  176  A    between atoms: _407  and  _408
REMARK  177  A    between atoms: _407  and  _410
REMARK  178  A    between atoms: _413  and  _415
REMARK  179  A    between atoms: _415  and  _416
REMARK  180  A    between atoms: _415  and  _418
REMARK  181  A    between atoms: _418  and  _419
REMARK  182  A    between atoms: _421  and  _423
REMARK  183  A    between atoms: _423  and  _424
REMARK  184  A    between atoms: _423  and  _426
REMARK  185  A    between atoms: _426  and  _427
REMARK  186  A    between atoms: _437  and  _439
REMARK  187  A    between atoms: _439  and  _440
REMARK  188  A    between atoms: _442  and  _444
REMARK  189  A    between atoms: _444  and  _445
REMARK  190  A    between atoms: _444  and  _447
REMARK  191  A    between atoms: _447  and  _448
REMARK  192  A    between atoms: _448  and  _449
REMARK  193  A    between atoms: _452  and  _454
REMARK  194  A    between atoms: _454  and  _455
REMARK  195  A    between atoms: _457  and  _459
REMARK  196  A    between atoms: _459  and  _460
REMARK  197  A    between atoms: _459  and  _462
REMARK  198  A    between atoms: _462  and  _463
REMARK  199  A    between atoms: _464  and  _466
REMARK  200  A    between atoms: _466  and  _467
REMARK  201  A    between atoms: _470  and  _472
REMARK  202  A    between atoms: _472  and  _473
REMARK  203  A    between atoms: _472  and  _475
REMARK  204  A    between atoms: _475  and  _476
REMARK  205  A    between atoms: _476  and  _477
REMARK  206  A    between atoms: _477  and  _478
REMARK  207  A    between atoms: _487  and  _489
REMARK  208  A    between atoms: _489  and  _490
REMARK  209  A    between atoms: _489  and  _492
REMARK  210  A    between atoms: _492  and  _493
REMARK  211  A    between atoms: _498  and  _499
REMARK  212  A    between atoms: _501  and  _503
REMARK  213  A    between atoms: _503  and  _504
REMARK  214  A    between atoms: _506  and  _508
REMARK  215  A    between atoms: _508  and  _509
REMARK  216  A    between atoms: _508  and  _511
REMARK  217  A    between atoms: _511  and  _512
REMARK  218  A    between atoms: _515  and  _517
REMARK  219  A    between atoms: _517  and  _518
REMARK  220  A    between atoms: _517  and  _520
REMARK  221  A    between atoms: _520  and  _521
REMARK  222  A    between atoms: _526  and  _527
REMARK  223  A    between atoms: _529  and  _531
REMARK  224  A    between atoms: _531  and  _532
REMARK  225  A    between atoms: _531  and  _534
REMARK  226  A    between atoms: _534  and  _535
REMARK                            x       y       z     vdW  Elec       q    Type
REMARK                         _______ _______ _______ _____ _____    ______ ____
ROOT
ATOM      1  CB  GLN A   1      13.128  65.024  -8.095  0.00  0.00    +0.035 C 
ENDROOT
BRANCH   1   2
ATOM      2  CA  GLN A   1      12.459  64.577  -9.387  0.00  0.00    +0.134 C 
BRANCH   2   3
ATOM      3  N   GLN A   1      12.582  63.132  -9.520  0.00  0.00    -0.239 NA
ATOM      4  H   GLN A   1      13.309  62.641  -8.962  0.00  0.00    +0.142 HD
ENDBRANCH   2   3
BRANCH   2   5
ATOM      5  C   GLN A   1      13.023  65.394 -10.546  0.00  0.00    +0.224 C 
ATOM      6  O   GLN A   1      12.720  66.570 -10.676  0.00  0.00    -0.287 OA
ENDBRANCH   2   5
ENDBRANCH   1   2
BRANCH   1   7
ATOM      7  CG  GLN A   1      12.418  64.535  -6.866  0.00  0.00    +0.087 C 
BRANCH   7   8
ATOM      8  CD  GLN A   1      13.174  64.842  -5.604  0.00  0.00    +0.219 C 
ATOM      9  OE1 GLN A   1      13.111  64.081  -4.648  0.00  0.00    -0.275 OA
ATOM     10  NE2 GLN A   1      13.896  65.962  -5.587  0.00  0.00    -0.329 N 
ATOM     11 HE21 GLN A   1      14.436  66.220  -4.736  0.00  0.00    +0.145 HD
ATOM     12 HE22 GLN A   1      13.919  66.578  -6.424  0.00  0.00    +0.145 HD
ENDBRANCH   7   8
ENDBRANCH   1   7
TORSDOF 5
REMARK  Name = ../refined-set-2016/2xc0/2xc0_pocket.pdb
REMARK  226 active torsions:
REMARK  status: ('A' for Active; 'I' for Inactive)
REMARK    1  A    between atoms: _1  and  _5
REMARK    2  A    between atoms: _5  and  _6
REMARK    3  A    between atoms: _5  and  _8
REMARK    4  A    between atoms: _8  and  _9
REMARK    5  A    between atoms: _12  and  _14
REMARK    6  A    between atoms: _14  and  _15
REMARK    7  A    between atoms: _14  and  _17
REMARK    8  A    between atoms: _20  and  _22
REMARK    9  A    between atoms: _22  and  _23
REMARK   10  A    between atoms: _22  and  _25
REMARK   11  A    between atoms: _25  and  _26
REMARK   12  A    between atoms: _26  and  _55
REMARK   13  A    between atoms: _27  and  _29
REMARK   14  A    between atoms: _29  and  _30
REMARK   15  A    between atoms: _32  and  _34
REMARK   16  A    between atoms: _34  and  _35
REMARK   17  A    between atoms: _38  and  _40
REMARK   18  A    between atoms: _40  and  _41
REMARK   19  A    between atoms: _40  and  _43
REMARK   20  A    between atoms: _43  and  _44
REMARK   21  A    between atoms: _49  and  _51
REMARK   22  A    between atoms: _51  and  _52
REMARK   23  A    between atoms: _51  and  _54
REMARK   24  A    between atoms: _54  and  _55
REMARK   25  A    between atoms: _56  and  _58
REMARK   26  A    between atoms: _58  and  _59
REMARK   27  A    between atoms: _58  and  _61
REMARK   28  A    between atoms: _61  and  _62
REMARK   29  A    between atoms: _62  and  _63
REMARK   30  A    between atoms: _68  and  _70
REMARK   31  A    between atoms: _70  and  _71
REMARK   32  A    between atoms: _70  and  _73
REMARK   33  A    between atoms: _73  and  _74
REMARK   34  A    between atoms: _80  and  _82
REMARK   35  A    between atoms: _82  and  _83
REMARK   36  A    between atoms: _82  and  _85
REMARK   37  A    between atoms: _85  and  _86
REMARK   38  A    between atoms: _89  and  _91
REMARK   39  A    between atoms: _91  and  _92
REMARK   40  A    between atoms: _91  and  _94
REMARK   41  A    between atoms: _94  and  _95
REMARK   42  A    between atoms: _95  and  _96
REMARK   43  A    between atoms: _96  and  _97
REMARK   44  A    between atoms: _97  and  _98
REMARK   45  A    between atoms: _102  and  _104
REMARK   46  A    between atoms: _104  and  _105
REMARK   47  A    between atoms: _104  and  _107
REMARK   48  A    between atoms: _107  and  _108
REMARK   49  A    between atoms: _108  and  _109
REMARK   50  A    between atoms: _112  and  _114
REMARK   51  A    between atoms: _114  and  _115
REMARK   52  A    between atoms: _114  and  _117
REMARK   53  A    between atoms: _117  and  _118
REMARK   54  A    between atoms: _121  and  _123
REMARK   55  A    between atoms: _123  and  _124
REMARK   56  A    between atoms: _123  and  _126
REMARK   57  A    between atoms: _126  and  _127
REMARK   58  A    between atoms: _132  and  _133
REMARK   59  A    between atoms: _135  and  _137
REMARK   60  A    between atoms: _137  and  _138
REMARK   61  A    between atoms: _137  and  _140
REMARK   62  A    between atoms: _140  and  _141
REMARK   63  A    between atoms: _144  and  _146
REMARK   64  A    between atoms: _146  and  _147
REMARK   65  A    between atoms: _146  and  _149
REMARK   66  A    between atoms: _149  and  _150
REMARK   67  A    between atoms: _153  and  _155
REMARK   68  A    between atoms: _155  and  _156
REMARK   69  A    between atoms: _155  and  _158
REMARK   70  A    between atoms: _161  and  _163
REMARK   71  A    between atoms: _163  and  _164
REMARK   72  A    between atoms: _163  and  _166
REMARK   73  A    between atoms: _166  and  _167
REMARK   74  A    between atoms: _167  and  _168
REMARK   75  A    between atoms: _168  and  _169
REMARK   76  A    between atoms: _178  and  _180
REMARK   77  A    between atoms: _180  and  _181
REMARK   78  A    between atoms: _180  and  _183
REMARK   79  A    between atoms: _183  and  _184
REMARK   80  A    between atoms: _189  and  _191
REMARK   81  A    between atoms: _191  and  _192
REMARK   82  A    between atoms: _191  and  _194
REMARK   83  A    between atoms: _194  and  _195
REMARK   84  A    between atoms: _195  and  _196
REMARK   85  A    between atoms: _199  and  _201
REMARK   86  A    between atoms: _201  and  _202
REMARK   87  A    between atoms: _201  and  _204
REMARK   88  A    between atoms: _204  and  _205
REMARK   89  A    between atoms: _205  and  _206
REMARK   90  A    between atoms: _206  and  _207
REMARK   91  A    between atoms: _207  and  _208
REMARK   92  A    between atoms: _212  and  _214
REMARK   93  A    between atoms: _214  and  _215
REMARK   94  A    between atoms: _217  and  _219
REMARK   95  A    between atoms: _219  and  _220
REMARK   96  A    between atoms: _219  and  _222
REMARK   97  A    between atoms: _225  and  _227
REMARK   98  A    between atoms: _227  and  _228
REMARK   99  A    between atoms: _227  and  _230
REMARK  100  A    between atoms: _230  and  _231
REMARK  101  A    between atoms: _233  and  _235
REMARK  102  A    between atoms: _235  and  _236
REMARK  103  A    between atoms: _235  and  _238
REMARK  104  A    between atoms: _238  and  _239
REMARK  105  A    between atoms: _241  and  _243
REMARK  106  A    between atoms: _243  and  _244
REMARK  107  A    between atoms: _243  and  _246
REMARK  108  A    between atoms: _246  and  _247
REMARK  109  A    between atoms: _253  and  _255
REMARK  110  A    between atoms: _255  and  _256
REMARK  111  A    between atoms: _255  and  _258
REMARK  112  A    between atoms: _258  and  _259
REMARK  113  A    between atoms: _262  and  _264
REMARK  114  A    between atoms: _264  and  _265
REMARK  115  A    between atoms: _264  and  _267
REMARK  116  A    between atoms: _267  and  _268
REMARK  117  A    between atoms: _271  and  _273
REMARK  118  A    between atoms: _273  and  _274
REMARK  119  A    between atoms: _273  and  _276
REMARK  120  A    between atoms: _276  and  _277
REMARK  121  A    between atoms: _280  and  _282
REMARK  122  A    between atoms: _282  and  _283
REMARK  123  A    between atoms: _282  and  _285
REMARK  124  A    between atoms: _285  and  _286
REMARK  125  A    between atoms: _286  and  _287
REMARK  126  A    between atoms: _289  and  _291
REMARK  127  A    between atoms: _291  and  _292
REMARK  128  A    between atoms: _291  and  _294
REMARK  129  A    between atoms: _294  and  _295
REMARK  130  A    between atoms: _301  and  _303
REMARK  131  A    between atoms: _303  and  _304
REMARK  132  A    between atoms: _303  and  _306
REMARK  133  A    between atoms: _308  and  _310
REMARK  134  A    between atoms: _310  and  _311
REMARK  135  A    between atoms: _314  and  _316
REMARK  136  A    between atoms: _316  and  _317
REMARK  137  A    between atoms: _319  and  _321
REMARK  138  A    between atoms: _321  and  _322
REMARK  139  A    between atoms: _321  and  _324
REMARK  140  A    between atoms: _324  and  _325
REMARK  141  A    between atoms: _328  and  _330
REMARK  142  A    between atoms: _330  and  _331
REMARK  143  A    between atoms: _334  and  _336
REMARK  144  A    between atoms: _336  and  _337
REMARK  145  A    between atoms: _336  and  _339
REMARK  146  A    between atoms: _339  and  _340
REMARK  147  A    between atoms: _340  and  _463
REMARK  148  A    between atoms: _341  and  _343
REMARK  149  A    between atoms: _343  and  _344
REMARK  150  A    between atoms: _343  and  _346
REMARK  151  A    between atoms: _346  and  _347
REMARK  152  A    between atoms: _347  and  _348
REMARK  153  A    between atoms: _353  and  _355
REMARK  154  A    between atoms: _355  and  _356
REMARK  155  A    between atoms: _358  and  _360
REMARK  156  A    between atoms: _360  and  _361
REMARK  157  A    between atoms: _360  and  _363
REMARK  158  A    between atoms: _363  and  _364
REMARK  159  A    between atoms: _367  and  _369
REMARK  160  A    between atoms: _369  and  _370
REMARK  161  A    between atoms: _369  and  _372
REMARK  162  A    between atoms: _372  and  _373
REMARK  163  A    between atoms: _375  and  _377
REMARK  164  A    between atoms: _377  and  _378
REMARK  165  A    between atoms: _380  and  _382
REMARK  166  A    between atoms: _382  and  _383
REMARK  167  A    between atoms: _385  and  _387
REMARK  168  A    between atoms: _387  and  _388
REMARK  169  A    between atoms: _387  and  _390
REMARK  170  A    between atoms: _390  and  _391
REMARK  171  A    between atoms: _396  and  _398
REMARK  172  A    between atoms: _398  and  _399
REMARK  173  A    between atoms: _398  and  _401
REMARK  174  A    between atoms: _401  and  _402
REMARK  175  A    between atoms: _405  and  _407
REMARK  176  A    between atoms: _407  and  _408
REMARK  177  A    between atoms: _407  and  _410
REMARK  178  A    between atoms: _413  and  _415
REMARK  179  A    between atoms: _415  and  _416
REMARK  180  A    between atoms: _415  and  _418
REMARK  181  A    between atoms: _418  and  _419
REMARK  182  A    between atoms: _421  and  _423
REMARK  183  A    between atoms: _423  and  _424
REMARK  184  A    between atoms: _423  and  _426
REMARK  185  A    between atoms: _426  and  _427
REMARK  186  A    between atoms: _437  and  _439
REMARK  187  A    between atoms: _439  and  _440
REMARK  188  A    between atoms: _442  and  _444
REMARK  189  A    between atoms: _444  and  _445
REMARK  190  A    between atoms: _444  and  _447
REMARK  191  A    between atoms: _447  and  _448
REMARK  192  A    between atoms: _448  and  _449
REMARK  193  A    between atoms: _452  and  _454
REMARK  194  A    between atoms: _454  and  _455
REMARK  195  A    between atoms: _457  and  _459
REMARK  196  A    between atoms: _459  and  _460
REMARK  197  A    between atoms: _459  and  _462
REMARK  198  A    between atoms: _462  and  _463
REMARK  199  A    between atoms: _464  and  _466
REMARK  200  A    between atoms: _466  and  _467
REMARK  201  A    between atoms: _470  and  _472
REMARK  202  A    between atoms: _472  and  _473
REMARK  203  A    between atoms: _472  and  _475
REMARK  204  A    between atoms: _475  and  _476
REMARK  205  A    between atoms: _476  and  _477
REMARK  206  A    between atoms: _477  and  _478
REMARK  207  A    between atoms: _487  and  _489
REMARK  208  A    between atoms: _489  and  _490
REMARK  209  A    between atoms: _489  and  _492
REMARK  210  A    between atoms: _492  and  _493
REMARK  211  A    between atoms: _498  and  _499
REMARK  212  A    between atoms: _501  and  _503
REMARK  213  A    between atoms: _503  and  _504
REMARK  214  A    between atoms: _506  and  _508
REMARK  215  A    between atoms: _508  and  _509
REMARK  216  A    between atoms: _508  and  _511
REMARK  217  A    between atoms: _511  and  _512
REMARK  218  A    between atoms: _515  and  _517
REMARK  219  A    between atoms: _517  and  _518
REMARK  220  A    between atoms: _517  and  _520
REMARK  221  A    between atoms: _520  and  _521
REMARK  222  A    between atoms: _526  and  _527
REMARK  223  A    between atoms: _529  and  _531
REMARK  224  A    between atoms: _531  and  _532
REMARK  225  A    between atoms: _531  and  _534
REMARK  226  A    between atoms: _534  and  _535
REMARK                            x       y       z     vdW  Elec       q    Type
REMARK                         _______ _______ _______ _____ _____    ______ ____
ROOT
ATOM      1  CA  GLU A   4       3.970  54.038  -1.493  0.00  0.00    +0.149 C 
ENDROOT
BRANCH   1   4
ATOM      2  C   LYS A   3       5.656  55.563  -2.356  0.00  0.00    +0.241 C 
ATOM      3  O   LYS A   3       5.415  56.379  -1.461  0.00  0.00    -0.273 OA
ATOM      4  N   GLU A   4       4.990  54.421  -2.471  0.00  0.00    -0.297 N 
ATOM      5  H   GLU A   4       5.196  53.787  -3.269  0.00  0.00    +0.150 HD
BRANCH   2   6
ATOM      6  CA  LYS A   3       6.746  55.839  -3.388  0.00  0.00    +0.149 C 
BRANCH   6   9
ATOM      7  C   THR A   2       7.810  53.629  -3.527  0.00  0.00    +0.243 C 
ATOM      8  O   THR A   2       8.150  53.639  -2.348  0.00  0.00    -0.273 OA
ATOM      9  N   LYS A   3       7.191  54.649  -4.126  0.00  0.00    -0.297 N 
ATOM     10  H   LYS A   3       7.018  54.600  -5.150  0.00  0.00    +0.150 HD
BRANCH   7  11
ATOM     11  CA  THR A   2       8.114  52.417  -4.373  0.00  0.00    +0.176 C 
BRANCH  11  13
ATOM     12  C   PHE A   1      10.225  51.322  -4.863  0.00  0.00    +0.239 C 
ATOM     13  N   THR A   2       9.426  51.908  -3.980  0.00  0.00    -0.295 N 
ATOM     14  H   THR A   2       9.739  52.006  -2.993  0.00  0.00    +0.150 HD
ATOM     15  O   PHE A   1       9.870  51.038  -5.997  0.00  0.00    -0.274 OA
BRANCH  12  16
ATOM     16  CA  PHE A   1      11.640  51.016  -4.398  0.00  0.00    +0.149 C 
BRANCH  16  17
ATOM     17  N   PHE A   1      12.014  49.710  -4.891  0.00  0.00    -0.238 NA
ATOM     18  H   PHE A   1      12.799  49.605  -5.565  0.00  0.00    +0.142 HD
ENDBRANCH  16  17
BRANCH  16  19
ATOM     19  CB  PHE A   1      12.558  52.146  -4.891  0.00  0.00    +0.053 C 
BRANCH  19  20
ATOM     20  CG  PHE A   1      12.042  53.498  -4.511  0.00  0.00    -0.020 A 
ATOM     21  CD2 PHE A   1      12.091  53.905  -3.191  0.00  0.00    -0.004 A 
ATOM     22  CE2 PHE A   1      11.574  55.126  -2.804  0.00  0.00    -0.000 A 
ATOM     23  CZ  PHE A   1      10.974  55.968  -3.774  0.00  0.00    -0.000 A 
ATOM     24  CE1 PHE A   1      10.907  55.562  -5.091  0.00  0.00    -0.000 A 
ATOM     25  CD1 PHE A   1      11.423  54.325  -5.462  0.00  0.00    -0.004 A 
ENDBRANCH  19  20
ENDBRANCH  16  19
ENDBRANCH  12  16
ENDBRANCH  11  13
BRANCH  11  26
ATOM     26  CB  THR A   2       6.967  51.349  -4.212  0.00  0.00    +0.137 C 
ATOM     27  CG2 THR A   2       6.939  50.766  -2.828  0.00  0.00    +0.034 C 
BRANCH  26  28
ATOM     28  OG1 THR A   2       5.702  51.981  -4.435  0.00  0.00    -0.382 OA
ATOM     29  HG1 THR A   2       4.978  51.313  -4.335  0.00  0.00    +0.210 HD
ENDBRANCH  26  28
ENDBRANCH  11  26
ENDBRANCH   7  11
ENDBRANCH   6   9
BRANCH   6  30
ATOM     30  CB  LYS A   3       6.266  56.923  -4.350  0.00  0.00    +0.029 C 
BRANCH  30  31
ATOM     31  CG  LYS A   3       7.383  57.717  -5.046  0.00  0.00    +0.000 C 
BRANCH  31  32
ATOM     32  CD  LYS A   3       6.817  58.879  -5.889  0.00  0.00    -0.024 C 
BRANCH  32  33
ATOM     33  CE  LYS A   3       6.162  58.387  -7.181  0.00  0.00    -0.086 C 
BRANCH  33  34
ATOM     34  NZ  LYS A   3       5.596  59.510  -8.023  0.00  0.00    +0.380 N 
ATOM     35  HZ1 LYS A   3       4.873  60.021  -7.477  0.00  0.00    -0.089 HD
ATOM     36  HZ2 LYS A   3       6.361  60.164  -8.285  0.00  0.00    -0.089 HD
ATOM     37  HZ3 LYS A   3       5.166  59.114  -8.883  0.00  0.00    -0.089 HD
ENDBRANCH  33  34
ENDBRANCH  32  33
ENDBRANCH  31  32
ENDBRANCH  30  31
ENDBRANCH   6  30
ENDBRANCH   2   6
ENDBRANCH   1   4
BRANCH   1  38
ATOM     38  C   GLU A   4       4.566  53.886  -0.081  0.00  0.00    +0.241 C 
ATOM     39  O   GLU A   4       3.975  54.336   0.905  0.00  0.00    -0.273 OA
ATOM     40  N   THR A   5       5.761  53.297   0.003  0.00  0.00    -0.295 N 
ATOM     41  H   THR A   5       6.266  53.052  -0.873  0.00  0.00    +0.150 HD
BRANCH  40  42
ATOM     42  CA  THR A   5       6.378  52.987   1.285  0.00  0.00    +0.176 C 
BRANCH  42  43
ATOM     43  C   THR A   5       7.688  53.748   1.512  0.00  0.00    +0.243 C 
ATOM     44  O   THR A   5       8.155  53.846   2.641  0.00  0.00    -0.273 OA
ATOM     45  N   TYR A   6       8.278  54.273   0.436  0.00  0.00    -0.297 N 
ATOM     46  H   TYR A   6       7.749  54.308  -0.459  0.00  0.00    +0.150 HD
BRANCH  45  47
ATOM     47  CA  TYR A   6       9.650  54.804   0.470  0.00  0.00    +0.153 C 
BRANCH  47  48
ATOM     48  C   TYR A   6      10.684  53.763   0.944  0.00  0.00    +0.241 C 
ATOM     49  O   TYR A   6      11.791  54.103   1.345  0.00  0.00    -0.273 OA
ATOM     50  N   ASP A   7      10.305  52.488   0.894  0.00  0.00    -0.298 N 
ATOM     51  H   ASP A   7       9.331  52.261   0.608  0.00  0.00    +0.150 HD
BRANCH  50  52
ATOM     52  CA  ASP A   7      11.210  51.408   1.227  0.00  0.00    +0.148 C 
BRANCH  52  53
ATOM     53  C   ASP A   7      12.182  51.193   0.064  0.00  0.00    +0.227 C 
ATOM     54  O   ASP A   7      11.886  51.588  -1.045  0.00  0.00    -0.286 OA
ENDBRANCH  52  53
BRANCH  52  55
ATOM     55  CB  ASP A   7      10.402  50.130   1.526  0.00  0.00    +0.142 C 
BRANCH  55  56
ATOM     56  CG  ASP A   7      11.165  49.153   2.378  0.00  0.00    +0.367 C 
ATOM     57  OD2 ASP A   7      12.270  49.467   2.880  0.00  0.00    -0.246 OA
ATOM     58  OD1 ASP A   7      10.654  48.051   2.551  0.00  0.00    -0.246 OA
ENDBRANCH  55  56
ENDBRANCH  52  55
ENDBRANCH  50  52
ENDBRANCH  47  48
BRANCH  47  59
ATOM     59  CB  TYR A   6       9.707  56.080   1.304  0.00  0.00    +0.055 C 
BRANCH  59  60
ATOM     60  CG  TYR A   6       9.602  57.302   0.419  0.00  0.00    -0.020 A 
ATOM     61  CD2 TYR A   6      10.697  58.137   0.229  0.00  0.00    -0.001 A 
ATOM     62  CE2 TYR A   6      10.599  59.258  -0.613  0.00  0.00    +0.036 A 
ATOM     63  CZ  TYR A   6       9.399  59.537  -1.246  0.00  0.00    +0.134 A 
ATOM     64  CE1 TYR A   6       8.294  58.717  -1.072  0.00  0.00    +0.036 A 
ATOM     65  CD1 TYR A   6       8.405  57.608  -0.244  0.00  0.00    -0.001 A 
BRANCH  63  66
ATOM     66  OH  TYR A   6       9.295  60.624  -2.070  0.00  0.00    -0.506 OA
ATOM     67  HH  TYR A   6       8.376  60.673  -2.435  0.00  0.00    +0.292 HD
ENDBRANCH  63  66
ENDBRANCH  59  60
ENDBRANCH  47  59
ENDBRANCH  45  47
ENDBRANCH  42  43
BRANCH  42  68
ATOM     68  CB  THR A   5       6.699  51.489   1.373  0.00  0.00    +0.137 C 
ATOM     69  CG2 THR A   5       5.405  50.630   1.246  0.00  0.00    +0.034 C 
BRANCH  68  70
ATOM     70  OG1 THR A   5       7.586  51.167   0.301  0.00  0.00    -0.382 OA
ATOM     71  HG1 THR A   5       7.808  50.203   0.337  0.00  0.00    +0.210 HD
ENDBRANCH  68  70
ENDBRANCH  42  68
ENDBRANCH  40  42
ENDBRANCH   1  38
BRANCH   1  72
ATOM     72  CB  GLU A   4       3.252  52.752  -1.948  0.00  0.00    +0.041 C 
BRANCH  72  73
ATOM     73  CG  GLU A   4       2.171  52.257  -0.985  0.00  0.00    +0.116 C 
BRANCH  73  74
ATOM     74  CD  GLU A   4       1.287  51.171  -1.597  0.00  0.00    +0.365 C 
ATOM     75  OE2 GLU A   4       0.047  51.328  -1.574  0.00  0.00    -0.246 OA
ATOM     76  OE1 GLU A   4       1.830  50.160  -2.093  0.00  0.00    -0.246 OA
ENDBRANCH  73  74
ENDBRANCH  72  73
ENDBRANCH   1  72
TORSDOF 33
REMARK  Name = ../refined-set-2016/2xc0/2xc0_pocket.pdb
REMARK  226 active torsions:
REMARK  status: ('A' for Active; 'I' for Inactive)
REMARK    1  A    between atoms: _1  and  _5
REMARK    2  A    between atoms: _5  and  _6
REMARK    3  A    between atoms: _5  and  _8
REMARK    4  A    between atoms: _8  and  _9
REMARK    5  A    between atoms: _12  and  _14
REMARK    6  A    between atoms: _14  and  _15
REMARK    7  A    between atoms: _14  and  _17
REMARK    8  A    between atoms: _20  and  _22
REMARK    9  A    between atoms: _22  and  _23
REMARK   10  A    between atoms: _22  and  _25
REMARK   11  A    between atoms: _25  and  _26
REMARK   12  A    between atoms: _26  and  _55
REMARK   13  A    between atoms: _27  and  _29
REMARK   14  A    between atoms: _29  and  _30
REMARK   15  A    between atoms: _32  and  _34
REMARK   16  A    between atoms: _34  and  _35
REMARK   17  A    between atoms: _38  and  _40
REMARK   18  A    between atoms: _40  and  _41
REMARK   19  A    between atoms: _40  and  _43
REMARK   20  A    between atoms: _43  and  _44
REMARK   21  A    between atoms: _49  and  _51
REMARK   22  A    between atoms: _51  and  _52
REMARK   23  A    between atoms: _51  and  _54
REMARK   24  A    between atoms: _54  and  _55
REMARK   25  A    between atoms: _56  and  _58
REMARK   26  A    between atoms: _58  and  _59
REMARK   27  A    between atoms: _58  and  _61
REMARK   28  A    between atoms: _61  and  _62
REMARK   29  A    between atoms: _62  and  _63
REMARK   30  A    between atoms: _68  and  _70
REMARK   31  A    between atoms: _70  and  _71
REMARK   32  A    between atoms: _70  and  _73
REMARK   33  A    between atoms: _73  and  _74
REMARK   34  A    between atoms: _80  and  _82
REMARK   35  A    between atoms: _82  and  _83
REMARK   36  A    between atoms: _82  and  _85
REMARK   37  A    between atoms: _85  and  _86
REMARK   38  A    between atoms: _89  and  _91
REMARK   39  A    between atoms: _91  and  _92
REMARK   40  A    between atoms: _91  and  _94
REMARK   41  A    between atoms: _94  and  _95
REMARK   42  A    between atoms: _95  and  _96
REMARK   43  A    between atoms: _96  and  _97
REMARK   44  A    between atoms: _97  and  _98
REMARK   45  A    between atoms: _102  and  _104
REMARK   46  A    between atoms: _104  and  _105
REMARK   47  A    between atoms: _104  and  _107
REMARK   48  A    between atoms: _107  and  _108
REMARK   49  A    between atoms: _108  and  _109
REMARK   50  A    between atoms: _112  and  _114
REMARK   51  A    between atoms: _114  and  _115
REMARK   52  A    between atoms: _114  and  _117
REMARK   53  A    between atoms: _117  and  _118
REMARK   54  A    between atoms: _121  and  _123
REMARK   55  A    between atoms: _123  and  _124
REMARK   56  A    between atoms: _123  and  _126
REMARK   57  A    between atoms: _126  and  _127
REMARK   58  A    between atoms: _132  and  _133
REMARK   59  A    between atoms: _135  and  _137
REMARK   60  A    between atoms: _137  and  _138
REMARK   61  A    between atoms: _137  and  _140
REMARK   62  A    between atoms: _140  and  _141
REMARK   63  A    between atoms: _144  and  _146
REMARK   64  A    between atoms: _146  and  _147
REMARK   65  A    between atoms: _146  and  _149
REMARK   66  A    between atoms: _149  and  _150
REMARK   67  A    between atoms: _153  and  _155
REMARK   68  A    between atoms: _155  and  _156
REMARK   69  A    between atoms: _155  and  _158
REMARK   70  A    between atoms: _161  and  _163
REMARK   71  A    between atoms: _163  and  _164
REMARK   72  A    between atoms: _163  and  _166
REMARK   73  A    between atoms: _166  and  _167
REMARK   74  A    between atoms: _167  and  _168
REMARK   75  A    between atoms: _168  and  _169
REMARK   76  A    between atoms: _178  and  _180
REMARK   77  A    between atoms: _180  and  _181
REMARK   78  A    between atoms: _180  and  _183
REMARK   79  A    between atoms: _183  and  _184
REMARK   80  A    between atoms: _189  and  _191
REMARK   81  A    between atoms: _191  and  _192
REMARK   82  A    between atoms: _191  and  _194
REMARK   83  A    between atoms: _194  and  _195
REMARK   84  A    between atoms: _195  and  _196
REMARK   85  A    between atoms: _199  and  _201
REMARK   86  A    between atoms: _201  and  _202
REMARK   87  A    between atoms: _201  and  _204
REMARK   88  A    between atoms: _204  and  _205
REMARK   89  A    between atoms: _205  and  _206
REMARK   90  A    between atoms: _206  and  _207
REMARK   91  A    between atoms: _207  and  _208
REMARK   92  A    between atoms: _212  and  _214
REMARK   93  A    between atoms: _214  and  _215
REMARK   94  A    between atoms: _217  and  _219
REMARK   95  A    between atoms: _219  and  _220
REMARK   96  A    between atoms: _219  and  _222
REMARK   97  A    between atoms: _225  and  _227
REMARK   98  A    between atoms: _227  and  _228
REMARK   99  A    between atoms: _227  and  _230
REMARK  100  A    between atoms: _230  and  _231
REMARK  101  A    between atoms: _233  and  _235
REMARK  102  A    between atoms: _235  and  _236
REMARK  103  A    between atoms: _235  and  _238
REMARK  104  A    between atoms: _238  and  _239
REMARK  105  A    between atoms: _241  and  _243
REMARK  106  A    between atoms: _243  and  _244
REMARK  107  A    between atoms: _243  and  _246
REMARK  108  A    between atoms: _246  and  _247
REMARK  109  A    between atoms: _253  and  _255
REMARK  110  A    between atoms: _255  and  _256
REMARK  111  A    between atoms: _255  and  _258
REMARK  112  A    between atoms: _258  and  _259
REMARK  113  A    between atoms: _262  and  _264
REMARK  114  A    between atoms: _264  and  _265
REMARK  115  A    between atoms: _264  and  _267
REMARK  116  A    between atoms: _267  and  _268
REMARK  117  A    between atoms: _271  and  _273
REMARK  118  A    between atoms: _273  and  _274
REMARK  119  A    between atoms: _273  and  _276
REMARK  120  A    between atoms: _276  and  _277
REMARK  121  A    between atoms: _280  and  _282
REMARK  122  A    between atoms: _282  and  _283
REMARK  123  A    between atoms: _282  and  _285
REMARK  124  A    between atoms: _285  and  _286
REMARK  125  A    between atoms: _286  and  _287
REMARK  126  A    between atoms: _289  and  _291
REMARK  127  A    between atoms: _291  and  _292
REMARK  128  A    between atoms: _291  and  _294
REMARK  129  A    between atoms: _294  and  _295
REMARK  130  A    between atoms: _301  and  _303
REMARK  131  A    between atoms: _303  and  _304
REMARK  132  A    between atoms: _303  and  _306
REMARK  133  A    between atoms: _308  and  _310
REMARK  134  A    between atoms: _310  and  _311
REMARK  135  A    between atoms: _314  and  _316
REMARK  136  A    between atoms: _316  and  _317
REMARK  137  A    between atoms: _319  and  _321
REMARK  138  A    between atoms: _321  and  _322
REMARK  139  A    between atoms: _321  and  _324
REMARK  140  A    between atoms: _324  and  _325
REMARK  141  A    between atoms: _328  and  _330
REMARK  142  A    between atoms: _330  and  _331
REMARK  143  A    between atoms: _334  and  _336
REMARK  144  A    between atoms: _336  and  _337
REMARK  145  A    between atoms: _336  and  _339
REMARK  146  A    between atoms: _339  and  _340
REMARK  147  A    between atoms: _340  and  _463
REMARK  148  A    between atoms: _341  and  _343
REMARK  149  A    between atoms: _343  and  _344
REMARK  150  A    between atoms: _343  and  _346
REMARK  151  A    between atoms: _346  and  _347
REMARK  152  A    between atoms: _347  and  _348
REMARK  153  A    between atoms: _353  and  _355
REMARK  154  A    between atoms: _355  and  _356
REMARK  155  A    between atoms: _358  and  _360
REMARK  156  A    between atoms: _360  and  _361
REMARK  157  A    between atoms: _360  and  _363
REMARK  158  A    between atoms: _363  and  _364
REMARK  159  A    between atoms: _367  and  _369
REMARK  160  A    between atoms: _369  and  _370
REMARK  161  A    between atoms: _369  and  _372
REMARK  162  A    between atoms: _372  and  _373
REMARK  163  A    between atoms: _375  and  _377
REMARK  164  A    between atoms: _377  and  _378
REMARK  165  A    between atoms: _380  and  _382
REMARK  166  A    between atoms: _382  and  _383
REMARK  167  A    between atoms: _385  and  _387
REMARK  168  A    between atoms: _387  and  _388
REMARK  169  A    between atoms: _387  and  _390
REMARK  170  A    between atoms: _390  and  _391
REMARK  171  A    between atoms: _396  and  _398
REMARK  172  A    between atoms: _398  and  _399
REMARK  173  A    between atoms: _398  and  _401
REMARK  174  A    between atoms: _401  and  _402
REMARK  175  A    between atoms: _405  and  _407
REMARK  176  A    between atoms: _407  and  _408
REMARK  177  A    between atoms: _407  and  _410
REMARK  178  A    between atoms: _413  and  _415
REMARK  179  A    between atoms: _415  and  _416
REMARK  180  A    between atoms: _415  and  _418
REMARK  181  A    between atoms: _418  and  _419
REMARK  182  A    between atoms: _421  and  _423
REMARK  183  A    between atoms: _423  and  _424
REMARK  184  A    between atoms: _423  and  _426
REMARK  185  A    between atoms: _426  and  _427
REMARK  186  A    between atoms: _437  and  _439
REMARK  187  A    between atoms: _439  and  _440
REMARK  188  A    between atoms: _442  and  _444
REMARK  189  A    between atoms: _444  and  _445
REMARK  190  A    between atoms: _444  and  _447
REMARK  191  A    between atoms: _447  and  _448
REMARK  192  A    between atoms: _448  and  _449
REMARK  193  A    between atoms: _452  and  _454
REMARK  194  A    between atoms: _454  and  _455
REMARK  195  A    between atoms: _457  and  _459
REMARK  196  A    between atoms: _459  and  _460
REMARK  197  A    between atoms: _459  and  _462
REMARK  198  A    between atoms: _462  and  _463
REMARK  199  A    between atoms: _464  and  _466
REMARK  200  A    between atoms: _466  and  _467
REMARK  201  A    between atoms: _470  and  _472
REMARK  202  A    between atoms: _472  and  _473
REMARK  203  A    between atoms: _472  and  _475
REMARK  204  A    between atoms: _475  and  _476
REMARK  205  A    between atoms: _476  and  _477
REMARK  206  A    between atoms: _477  and  _478
REMARK  207  A    between atoms: _487  and  _489
REMARK  208  A    between atoms: _489  and  _490
REMARK  209  A    between atoms: _489  and  _492
REMARK  210  A    between atoms: _492  and  _493
REMARK  211  A    between atoms: _498  and  _499
REMARK  212  A    between atoms: _501  and  _503
REMARK  213  A    between atoms: _503  and  _504
REMARK  214  A    between atoms: _506  and  _508
REMARK  215  A    between atoms: _508  and  _509
REMARK  216  A    between atoms: _508  and  _511
REMARK  217  A    between atoms: _511  and  _512
REMARK  218  A    between atoms: _515  and  _517
REMARK  219  A    between atoms: _517  and  _518
REMARK  220  A    between atoms: _517  and  _520
REMARK  221  A    between atoms: _520  and  _521
REMARK  222  A    between atoms: _526  and  _527
REMARK  223  A    between atoms: _529  and  _531
REMARK  224  A    between atoms: _531  and  _532
REMARK  225  A    between atoms: _531  and  _534
REMARK  226  A    between atoms: _534  and  _535
REMARK                            x       y       z     vdW  Elec       q    Type
REMARK                         _______ _______ _______ _____ _____    ______ ____
ROOT
ATOM      1  CA  ASP A   1      15.197  54.008  -1.150  0.00  0.00    +0.144 C 
ENDROOT
BRANCH   1   2
ATOM      2  N   ASP A   1      14.927  52.696  -0.604  0.00  0.00    -0.239 NA
ATOM      3  H   ASP A   1      14.847  52.583   0.427  0.00  0.00    +0.142 HD
ENDBRANCH   1   2
BRANCH   1   4
ATOM      4  C   ASP A   1      16.698  54.181  -1.397  0.00  0.00    +0.225 C 
ATOM      5  O   ASP A   1      17.409  54.908  -0.678  0.00  0.00    -0.287 OA
ENDBRANCH   1   4
BRANCH   1   6
ATOM      6  CB  ASP A   1      14.619  55.127  -0.260  0.00  0.00    +0.139 C 
BRANCH   6   7
ATOM      7  CG  ASP A   1      14.607  56.489  -0.983  0.00  0.00    +0.367 C 
ATOM      8  OD2 ASP A   1      14.463  57.545  -0.328  0.00  0.00    -0.246 OA
ATOM      9  OD1 ASP A   1      14.747  56.492  -2.222  0.00  0.00    -0.246 OA
ENDBRANCH   6   7
ENDBRANCH   1   6
TORSDOF 4
REMARK  Name = ../refined-set-2016/2xc0/2xc0_pocket.pdb
REMARK  226 active torsions:
REMARK  status: ('A' for Active; 'I' for Inactive)
REMARK    1  A    between atoms: _1  and  _5
REMARK    2  A    between atoms: _5  and  _6
REMARK    3  A    between atoms: _5  and  _8
REMARK    4  A    between atoms: _8  and  _9
REMARK    5  A    between atoms: _12  and  _14
REMARK    6  A    between atoms: _14  and  _15
REMARK    7  A    between atoms: _14  and  _17
REMARK    8  A    between atoms: _20  and  _22
REMARK    9  A    between atoms: _22  and  _23
REMARK   10  A    between atoms: _22  and  _25
REMARK   11  A    between atoms: _25  and  _26
REMARK   12  A    between atoms: _26  and  _55
REMARK   13  A    between atoms: _27  and  _29
REMARK   14  A    between atoms: _29  and  _30
REMARK   15  A    between atoms: _32  and  _34
REMARK   16  A    between atoms: _34  and  _35
REMARK   17  A    between atoms: _38  and  _40
REMARK   18  A    between atoms: _40  and  _41
REMARK   19  A    between atoms: _40  and  _43
REMARK   20  A    between atoms: _43  and  _44
REMARK   21  A    between atoms: _49  and  _51
REMARK   22  A    between atoms: _51  and  _52
REMARK   23  A    between atoms: _51  and  _54
REMARK   24  A    between atoms: _54  and  _55
REMARK   25  A    between atoms: _56  and  _58
REMARK   26  A    between atoms: _58  and  _59
REMARK   27  A    between atoms: _58  and  _61
REMARK   28  A    between atoms: _61  and  _62
REMARK   29  A    between atoms: _62  and  _63
REMARK   30  A    between atoms: _68  and  _70
REMARK   31  A    between atoms: _70  and  _71
REMARK   32  A    between atoms: _70  and  _73
REMARK   33  A    between atoms: _73  and  _74
REMARK   34  A    between atoms: _80  and  _82
REMARK   35  A    between atoms: _82  and  _83
REMARK   36  A    between atoms: _82  and  _85
REMARK   37  A    between atoms: _85  and  _86
REMARK   38  A    between atoms: _89  and  _91
REMARK   39  A    between atoms: _91  and  _92
REMARK   40  A    between atoms: _91  and  _94
REMARK   41  A    between atoms: _94  and  _95
REMARK   42  A    between atoms: _95  and  _96
REMARK   43  A    between atoms: _96  and  _97
REMARK   44  A    between atoms: _97  and  _98
REMARK   45  A    between atoms: _102  and  _104
REMARK   46  A    between atoms: _104  and  _105
REMARK   47  A    between atoms: _104  and  _107
REMARK   48  A    between atoms: _107  and  _108
REMARK   49  A    between atoms: _108  and  _109
REMARK   50  A    between atoms: _112  and  _114
REMARK   51  A    between atoms: _114  and  _115
REMARK   52  A    between atoms: _114  and  _117
REMARK   53  A    between atoms: _117  and  _118
REMARK   54  A    between atoms: _121  and  _123
REMARK   55  A    between atoms: _123  and  _124
REMARK   56  A    between atoms: _123  and  _126
REMARK   57  A    between atoms: _126  and  _127
REMARK   58  A    between atoms: _132  and  _133
REMARK   59  A    between atoms: _135  and  _137
REMARK   60  A    between atoms: _137  and  _138
REMARK   61  A    between atoms: _137  and  _140
REMARK   62  A    between atoms: _140  and  _141
REMARK   63  A    between atoms: _144  and  _146
REMARK   64  A    between atoms: _146  and  _147
REMARK   65  A    between atoms: _146  and  _149
REMARK   66  A    between atoms: _149  and  _150
REMARK   67  A    between atoms: _153  and  _155
REMARK   68  A    between atoms: _155  and  _156
REMARK   69  A    between atoms: _155  and  _158
REMARK   70  A    between atoms: _161  and  _163
REMARK   71  A    between atoms: _163  and  _164
REMARK   72  A    between atoms: _163  and  _166
REMARK   73  A    between atoms: _166  and  _167
REMARK   74  A    between atoms: _167  and  _168
REMARK   75  A    between atoms: _168  and  _169
REMARK   76  A    between atoms: _178  and  _180
REMARK   77  A    between atoms: _180  and  _181
REMARK   78  A    between atoms: _180  and  _183
REMARK   79  A    between atoms: _183  and  _184
REMARK   80  A    between atoms: _189  and  _191
REMARK   81  A    between atoms: _191  and  _192
REMARK   82  A    between atoms: _191  and  _194
REMARK   83  A    between atoms: _194  and  _195
REMARK   84  A    between atoms: _195  and  _196
REMARK   85  A    between atoms: _199  and  _201
REMARK   86  A    between atoms: _201  and  _202
REMARK   87  A    between atoms: _201  and  _204
REMARK   88  A    between atoms: _204  and  _205
REMARK   89  A    between atoms: _205  and  _206
REMARK   90  A    between atoms: _206  and  _207
REMARK   91  A    between atoms: _207  and  _208
REMARK   92  A    between atoms: _212  and  _214
REMARK   93  A    between atoms: _214  and  _215
REMARK   94  A    between atoms: _217  and  _219
REMARK   95  A    between atoms: _219  and  _220
REMARK   96  A    between atoms: _219  and  _222
REMARK   97  A    between atoms: _225  and  _227
REMARK   98  A    between atoms: _227  and  _228
REMARK   99  A    between atoms: _227  and  _230
REMARK  100  A    between atoms: _230  and  _231
REMARK  101  A    between atoms: _233  and  _235
REMARK  102  A    between atoms: _235  and  _236
REMARK  103  A    between atoms: _235  and  _238
REMARK  104  A    between atoms: _238  and  _239
REMARK  105  A    between atoms: _241  and  _243
REMARK  106  A    between atoms: _243  and  _244
REMARK  107  A    between atoms: _243  and  _246
REMARK  108  A    between atoms: _246  and  _247
REMARK  109  A    between atoms: _253  and  _255
REMARK  110  A    between atoms: _255  and  _256
REMARK  111  A    between atoms: _255  and  _258
REMARK  112  A    between atoms: _258  and  _259
REMARK  113  A    between atoms: _262  and  _264
REMARK  114  A    between atoms: _264  and  _265
REMARK  115  A    between atoms: _264  and  _267
REMARK  116  A    between atoms: _267  and  _268
REMARK  117  A    between atoms: _271  and  _273
REMARK  118  A    between atoms: _273  and  _274
REMARK  119  A    between atoms: _273  and  _276
REMARK  120  A    between atoms: _276  and  _277
REMARK  121  A    between atoms: _280  and  _282
REMARK  122  A    between atoms: _282  and  _283
REMARK  123  A    between atoms: _282  and  _285
REMARK  124  A    between atoms: _285  and  _286
REMARK  125  A    between atoms: _286  and  _287
REMARK  126  A    between atoms: _289  and  _291
REMARK  127  A    between atoms: _291  and  _292
REMARK  128  A    between atoms: _291  and  _294
REMARK  129  A    between atoms: _294  and  _295
REMARK  130  A    between atoms: _301  and  _303
REMARK  131  A    between atoms: _303  and  _304
REMARK  132  A    between atoms: _303  and  _306
REMARK  133  A    between atoms: _308  and  _310
REMARK  134  A    between atoms: _310  and  _311
REMARK  135  A    between atoms: _314  and  _316
REMARK  136  A    between atoms: _316  and  _317
REMARK  137  A    between atoms: _319  and  _321
REMARK  138  A    between atoms: _321  and  _322
REMARK  139  A    between atoms: _321  and  _324
REMARK  140  A    between atoms: _324  and  _325
REMARK  141  A    between atoms: _328  and  _330
REMARK  142  A    between atoms: _330  and  _331
REMARK  143  A    between atoms: _334  and  _336
REMARK  144  A    between atoms: _336  and  _337
REMARK  145  A    between atoms: _336  and  _339
REMARK  146  A    between atoms: _339  and  _340
REMARK  147  A    between atoms: _340  and  _463
REMARK  148  A    between atoms: _341  and  _343
REMARK  149  A    between atoms: _343  and  _344
REMARK  150  A    between atoms: _343  and  _346
REMARK  151  A    between atoms: _346  and  _347
REMARK  152  A    between atoms: _347  and  _348
REMARK  153  A    between atoms: _353  and  _355
REMARK  154  A    between atoms: _355  and  _356
REMARK  155  A    between atoms: _358  and  _360
REMARK  156  A    between atoms: _360  and  _361
REMARK  157  A    between atoms: _360  and  _363
REMARK  158  A    between atoms: _363  and  _364
REMARK  159  A    between atoms: _367  and  _369
REMARK  160  A    between atoms: _369  and  _370
REMARK  161  A    between atoms: _369  and  _372
REMARK  162  A    between atoms: _372  and  _373
REMARK  163  A    between atoms: _375  and  _377
REMARK  164  A    between atoms: _377  and  _378
REMARK  165  A    between atoms: _380  and  _382
REMARK  166  A    between atoms: _382  and  _383
REMARK  167  A    between atoms: _385  and  _387
REMARK  168  A    between atoms: _387  and  _388
REMARK  169  A    between atoms: _387  and  _390
REMARK  170  A    between atoms: _390  and  _391
REMARK  171  A    between atoms: _396  and  _398
REMARK  172  A    between atoms: _398  and  _399
REMARK  173  A    between atoms: _398  and  _401
REMARK  174  A    between atoms: _401  and  _402
REMARK  175  A    between atoms: _405  and  _407
REMARK  176  A    between atoms: _407  and  _408
REMARK  177  A    between atoms: _407  and  _410
REMARK  178  A    between atoms: _413  and  _415
REMARK  179  A    between atoms: _415  and  _416
REMARK  180  A    between atoms: _415  and  _418
REMARK  181  A    between atoms: _418  and  _419
REMARK  182  A    between atoms: _421  and  _423
REMARK  183  A    between atoms: _423  and  _424
REMARK  184  A    between atoms: _423  and  _426
REMARK  185  A    between atoms: _426  and  _427
REMARK  186  A    between atoms: _437  and  _439
REMARK  187  A    between atoms: _439  and  _440
REMARK  188  A    between atoms: _442  and  _444
REMARK  189  A    between atoms: _444  and  _445
REMARK  190  A    between atoms: _444  and  _447
REMARK  191  A    between atoms: _447  and  _448
REMARK  192  A    between atoms: _448  and  _449
REMARK  193  A    between atoms: _452  and  _454
REMARK  194  A    between atoms: _454  and  _455
REMARK  195  A    between atoms: _457  and  _459
REMARK  196  A    between atoms: _459  and  _460
REMARK  197  A    between atoms: _459  and  _462
REMARK  198  A    between atoms: _462  and  _463
REMARK  199  A    between atoms: _464  and  _466
REMARK  200  A    between atoms: _466  and  _467
REMARK  201  A    between atoms: _470  and  _472
REMARK  202  A    between atoms: _472  and  _473
REMARK  203  A    between atoms: _472  and  _475
REMARK  204  A    between atoms: _475  and  _476
REMARK  205  A    between atoms: _476  and  _477
REMARK  206  A    between atoms: _477  and  _478
REMARK  207  A    between atoms: _487  and  _489
REMARK  208  A    between atoms: _489  and  _490
REMARK  209  A    between atoms: _489  and  _492
REMARK  210  A    between atoms: _492  and  _493
REMARK  211  A    between atoms: _498  and  _499
REMARK  212  A    between atoms: _501  and  _503
REMARK  213  A    between atoms: _503  and  _504
REMARK  214  A    between atoms: _506  and  _508
REMARK  215  A    between atoms: _508  and  _509
REMARK  216  A    between atoms: _508  and  _511
REMARK  217  A    between atoms: _511  and  _512
REMARK  218  A    between atoms: _515  and  _517
REMARK  219  A    between atoms: _517  and  _518
REMARK  220  A    between atoms: _517  and  _520
REMARK  221  A    between atoms: _520  and  _521
REMARK  222  A    between atoms: _526  and  _527
REMARK  223  A    between atoms: _529  and  _531
REMARK  224  A    between atoms: _531  and  _532
REMARK  225  A    between atoms: _531  and  _534
REMARK  226  A    between atoms: _534  and  _535
REMARK                            x       y       z     vdW  Elec       q    Type
REMARK                         _______ _______ _______ _____ _____    ______ ____
ROOT
ATOM      1  CA  VAL A   1      24.525  64.088   7.757  0.00  0.00    +0.133 C 
ENDROOT
BRANCH   1   2
ATOM      2  CB  VAL A   1      22.981  64.042   7.962  0.00  0.00    +0.023 C 
ATOM      3  CG2 VAL A   1      22.474  65.193   8.860  0.00  0.00    +0.002 C 
ATOM      4  CG1 VAL A   1      22.279  64.090   6.628  0.00  0.00    +0.002 C 
ENDBRANCH   1   2
BRANCH   1   5
ATOM      5  N   VAL A   1      25.248  63.859   9.002  0.00  0.00    -0.239 NA
ATOM      6  H   VAL A   1      25.032  64.470   9.815  0.00  0.00    +0.142 HD
ENDBRANCH   1   5
BRANCH   1   7
ATOM      7  C   VAL A   1      24.952  65.434   7.160  0.00  0.00    +0.224 C 
ATOM      8  O   VAL A   1      25.329  66.347   7.895  0.00  0.00    -0.287 OA
ENDBRANCH   1   7
TORSDOF 3
REMARK  Name = ../refined-set-2016/2xc0/2xc0_pocket.pdb
REMARK  226 active torsions:
REMARK  status: ('A' for Active; 'I' for Inactive)
REMARK    1  A    between atoms: _1  and  _5
REMARK    2  A    between atoms: _5  and  _6
REMARK    3  A    between atoms: _5  and  _8
REMARK    4  A    between atoms: _8  and  _9
REMARK    5  A    between atoms: _12  and  _14
REMARK    6  A    between atoms: _14  and  _15
REMARK    7  A    between atoms: _14  and  _17
REMARK    8  A    between atoms: _20  and  _22
REMARK    9  A    between atoms: _22  and  _23
REMARK   10  A    between atoms: _22  and  _25
REMARK   11  A    between atoms: _25  and  _26
REMARK   12  A    between atoms: _26  and  _55
REMARK   13  A    between atoms: _27  and  _29
REMARK   14  A    between atoms: _29  and  _30
REMARK   15  A    between atoms: _32  and  _34
REMARK   16  A    between atoms: _34  and  _35
REMARK   17  A    between atoms: _38  and  _40
REMARK   18  A    between atoms: _40  and  _41
REMARK   19  A    between atoms: _40  and  _43
REMARK   20  A    between atoms: _43  and  _44
REMARK   21  A    between atoms: _49  and  _51
REMARK   22  A    between atoms: _51  and  _52
REMARK   23  A    between atoms: _51  and  _54
REMARK   24  A    between atoms: _54  and  _55
REMARK   25  A    between atoms: _56  and  _58
REMARK   26  A    between atoms: _58  and  _59
REMARK   27  A    between atoms: _58  and  _61
REMARK   28  A    between atoms: _61  and  _62
REMARK   29  A    between atoms: _62  and  _63
REMARK   30  A    between atoms: _68  and  _70
REMARK   31  A    between atoms: _70  and  _71
REMARK   32  A    between atoms: _70  and  _73
REMARK   33  A    between atoms: _73  and  _74
REMARK   34  A    between atoms: _80  and  _82
REMARK   35  A    between atoms: _82  and  _83
REMARK   36  A    between atoms: _82  and  _85
REMARK   37  A    between atoms: _85  and  _86
REMARK   38  A    between atoms: _89  and  _91
REMARK   39  A    between atoms: _91  and  _92
REMARK   40  A    between atoms: _91  and  _94
REMARK   41  A    between atoms: _94  and  _95
REMARK   42  A    between atoms: _95  and  _96
REMARK   43  A    between atoms: _96  and  _97
REMARK   44  A    between atoms: _97  and  _98
REMARK   45  A    between atoms: _102  and  _104
REMARK   46  A    between atoms: _104  and  _105
REMARK   47  A    between atoms: _104  and  _107
REMARK   48  A    between atoms: _107  and  _108
REMARK   49  A    between atoms: _108  and  _109
REMARK   50  A    between atoms: _112  and  _114
REMARK   51  A    between atoms: _114  and  _115
REMARK   52  A    between atoms: _114  and  _117
REMARK   53  A    between atoms: _117  and  _118
REMARK   54  A    between atoms: _121  and  _123
REMARK   55  A    between atoms: _123  and  _124
REMARK   56  A    between atoms: _123  and  _126
REMARK   57  A    between atoms: _126  and  _127
REMARK   58  A    between atoms: _132  and  _133
REMARK   59  A    between atoms: _135  and  _137
REMARK   60  A    between atoms: _137  and  _138
REMARK   61  A    between atoms: _137  and  _140
REMARK   62  A    between atoms: _140  and  _141
REMARK   63  A    between atoms: _144  and  _146
REMARK   64  A    between atoms: _146  and  _147
REMARK   65  A    between atoms: _146  and  _149
REMARK   66  A    between atoms: _149  and  _150
REMARK   67  A    between atoms: _153  and  _155
REMARK   68  A    between atoms: _155  and  _156
REMARK   69  A    between atoms: _155  and  _158
REMARK   70  A    between atoms: _161  and  _163
REMARK   71  A    between atoms: _163  and  _164
REMARK   72  A    between atoms: _163  and  _166
REMARK   73  A    between atoms: _166  and  _167
REMARK   74  A    between atoms: _167  and  _168
REMARK   75  A    between atoms: _168  and  _169
REMARK   76  A    between atoms: _178  and  _180
REMARK   77  A    between atoms: _180  and  _181
REMARK   78  A    between atoms: _180  and  _183
REMARK   79  A    between atoms: _183  and  _184
REMARK   80  A    between atoms: _189  and  _191
REMARK   81  A    between atoms: _191  and  _192
REMARK   82  A    between atoms: _191  and  _194
REMARK   83  A    between atoms: _194  and  _195
REMARK   84  A    between atoms: _195  and  _196
REMARK   85  A    between atoms: _199  and  _201
REMARK   86  A    between atoms: _201  and  _202
REMARK   87  A    between atoms: _201  and  _204
REMARK   88  A    between atoms: _204  and  _205
REMARK   89  A    between atoms: _205  and  _206
REMARK   90  A    between atoms: _206  and  _207
REMARK   91  A    between atoms: _207  and  _208
REMARK   92  A    between atoms: _212  and  _214
REMARK   93  A    between atoms: _214  and  _215
REMARK   94  A    between atoms: _217  and  _219
REMARK   95  A    between atoms: _219  and  _220
REMARK   96  A    between atoms: _219  and  _222
REMARK   97  A    between atoms: _225  and  _227
REMARK   98  A    between atoms: _227  and  _228
REMARK   99  A    between atoms: _227  and  _230
REMARK  100  A    between atoms: _230  and  _231
REMARK  101  A    between atoms: _233  and  _235
REMARK  102  A    between atoms: _235  and  _236
REMARK  103  A    between atoms: _235  and  _238
REMARK  104  A    between atoms: _238  and  _239
REMARK  105  A    between atoms: _241  and  _243
REMARK  106  A    between atoms: _243  and  _244
REMARK  107  A    between atoms: _243  and  _246
REMARK  108  A    between atoms: _246  and  _247
REMARK  109  A    between atoms: _253  and  _255
REMARK  110  A    between atoms: _255  and  _256
REMARK  111  A    between atoms: _255  and  _258
REMARK  112  A    between atoms: _258  and  _259
REMARK  113  A    between atoms: _262  and  _264
REMARK  114  A    between atoms: _264  and  _265
REMARK  115  A    between atoms: _264  and  _267
REMARK  116  A    between atoms: _267  and  _268
REMARK  117  A    between atoms: _271  and  _273
REMARK  118  A    between atoms: _273  and  _274
REMARK  119  A    between atoms: _273  and  _276
REMARK  120  A    between atoms: _276  and  _277
REMARK  121  A    between atoms: _280  and  _282
REMARK  122  A    between atoms: _282  and  _283
REMARK  123  A    between atoms: _282  and  _285
REMARK  124  A    between atoms: _285  and  _286
REMARK  125  A    between atoms: _286  and  _287
REMARK  126  A    between atoms: _289  and  _291
REMARK  127  A    between atoms: _291  and  _292
REMARK  128  A    between atoms: _291  and  _294
REMARK  129  A    between atoms: _294  and  _295
REMARK  130  A    between atoms: _301  and  _303
REMARK  131  A    between atoms: _303  and  _304
REMARK  132  A    between atoms: _303  and  _306
REMARK  133  A    between atoms: _308  and  _310
REMARK  134  A    between atoms: _310  and  _311
REMARK  135  A    between atoms: _314  and  _316
REMARK  136  A    between atoms: _316  and  _317
REMARK  137  A    between atoms: _319  and  _321
REMARK  138  A    between atoms: _321  and  _322
REMARK  139  A    between atoms: _321  and  _324
REMARK  140  A    between atoms: _324  and  _325
REMARK  141  A    between atoms: _328  and  _330
REMARK  142  A    between atoms: _330  and  _331
REMARK  143  A    between atoms: _334  and  _336
REMARK  144  A    between atoms: _336  and  _337
REMARK  145  A    between atoms: _336  and  _339
REMARK  146  A    between atoms: _339  and  _340
REMARK  147  A    between atoms: _340  and  _463
REMARK  148  A    between atoms: _341  and  _343
REMARK  149  A    between atoms: _343  and  _344
REMARK  150  A    between atoms: _343  and  _346
REMARK  151  A    between atoms: _346  and  _347
REMARK  152  A    between atoms: _347  and  _348
REMARK  153  A    between atoms: _353  and  _355
REMARK  154  A    between atoms: _355  and  _356
REMARK  155  A    between atoms: _358  and  _360
REMARK  156  A    between atoms: _360  and  _361
REMARK  157  A    between atoms: _360  and  _363
REMARK  158  A    between atoms: _363  and  _364
REMARK  159  A    between atoms: _367  and  _369
REMARK  160  A    between atoms: _369  and  _370
REMARK  161  A    between atoms: _369  and  _372
REMARK  162  A    between atoms: _372  and  _373
REMARK  163  A    between atoms: _375  and  _377
REMARK  164  A    between atoms: _377  and  _378
REMARK  165  A    between atoms: _380  and  _382
REMARK  166  A    between atoms: _382  and  _383
REMARK  167  A    between atoms: _385  and  _387
REMARK  168  A    between atoms: _387  and  _388
REMARK  169  A    between atoms: _387  and  _390
REMARK  170  A    between atoms: _390  and  _391
REMARK  171  A    between atoms: _396  and  _398
REMARK  172  A    between atoms: _398  and  _399
REMARK  173  A    between atoms: _398  and  _401
REMARK  174  A    between atoms: _401  and  _402
REMARK  175  A    between atoms: _405  and  _407
REMARK  176  A    between atoms: _407  and  _408
REMARK  177  A    between atoms: _407  and  _410
REMARK  178  A    between atoms: _413  and  _415
REMARK  179  A    between atoms: _415  and  _416
REMARK  180  A    between atoms: _415  and  _418
REMARK  181  A    between atoms: _418  and  _419
REMARK  182  A    between atoms: _421  and  _423
REMARK  183  A    between atoms: _423  and  _424
REMARK  184  A    between atoms: _423  and  _426
REMARK  185  A    between atoms: _426  and  _427
REMARK  186  A    between atoms: _437  and  _439
REMARK  187  A    between atoms: _439  and  _440
REMARK  188  A    between atoms: _442  and  _444
REMARK  189  A    between atoms: _444  and  _445
REMARK  190  A    between atoms: _444  and  _447
REMARK  191  A    between atoms: _447  and  _448
REMARK  192  A    between atoms: _448  and  _449
REMARK  193  A    between atoms: _452  and  _454
REMARK  194  A    between atoms: _454  and  _455
REMARK  195  A    between atoms: _457  and  _459
REMARK  196  A    between atoms: _459  and  _460
REMARK  197  A    between atoms: _459  and  _462
REMARK  198  A    between atoms: _462  and  _463
REMARK  199  A    between atoms: _464  and  _466
REMARK  200  A    between atoms: _466  and  _467
REMARK  201  A    between atoms: _470  and  _472
REMARK  202  A    between atoms: _472  and  _473
REMARK  203  A    between atoms: _472  and  _475
REMARK  204  A    between atoms: _475  and  _476
REMARK  205  A    between atoms: _476  and  _477
REMARK  206  A    between atoms: _477  and  _478
REMARK  207  A    between atoms: _487  and  _489
REMARK  208  A    between atoms: _489  and  _490
REMARK  209  A    between atoms: _489  and  _492
REMARK  210  A    between atoms: _492  and  _493
REMARK  211  A    between atoms: _498  and  _499
REMARK  212  A    between atoms: _501  and  _503
REMARK  213  A    between atoms: _503  and  _504
REMARK  214  A    between atoms: _506  and  _508
REMARK  215  A    between atoms: _508  and  _509
REMARK  216  A    between atoms: _508  and  _511
REMARK  217  A    between atoms: _511  and  _512
REMARK  218  A    between atoms: _515  and  _517
REMARK  219  A    between atoms: _517  and  _518
REMARK  220  A    between atoms: _517  and  _520
REMARK  221  A    between atoms: _520  and  _521
REMARK  222  A    between atoms: _526  and  _527
REMARK  223  A    between atoms: _529  and  _531
REMARK  224  A    between atoms: _531  and  _532
REMARK  225  A    between atoms: _531  and  _534
REMARK  226  A    between atoms: _534  and  _535
REMARK                            x       y       z     vdW  Elec       q    Type
REMARK                         _______ _______ _______ _____ _____    ______ ____
ROOT
ATOM      1  NE  ARG A   1      12.222  72.985   0.480  0.00  0.00    -0.265 N 
ATOM      2  CZ  ARG A   1      11.058  73.452   0.043  0.00  0.00    +0.342 C 
ATOM      3  NH2 ARG A   1      10.329  74.270   0.795  0.00  0.00    -0.292 N 
ATOM      4 HH21 ARG A   1      10.668  74.551   1.737  0.00  0.00    +0.255 HD
ATOM      5 HH22 ARG A   1       9.419  74.629   0.442  0.00  0.00    +0.255 HD
ATOM      6  NH1 ARG A   1      10.619  73.090  -1.156  0.00  0.00    -0.292 N 
ATOM      7 HH11 ARG A   1       9.709  73.450  -1.507  0.00  0.00    +0.255 HD
ATOM      8 HH12 ARG A   1      11.185  72.446  -1.744  0.00  0.00    +0.255 HD
ATOM      9  HE  ARG A   1      12.750  72.348  -0.150  0.00  0.00    +0.259 HD
ENDROOT
BRANCH   1  10
ATOM     10  CD  ARG A   1      12.815  73.294   1.768  0.00  0.00    +0.174 C 
BRANCH  10  11
ATOM     11  CG  ARG A   1      14.302  73.261   1.668  0.00  0.00    +0.045 C 
BRANCH  11  12
ATOM     12  CB  ARG A   1      14.937  73.396   3.014  0.00  0.00    +0.029 C 
BRANCH  12  13
ATOM     13  CA  ARG A   1      16.455  73.606   2.978  0.00  0.00    +0.133 C 
BRANCH  13  14
ATOM     14  N   ARG A   1      17.125  72.512   2.258  0.00  0.00    -0.239 NA
ATOM     15  H   ARG A   1      16.543  71.758   1.841  0.00  0.00    +0.142 HD
ENDBRANCH  13  14
BRANCH  13  16
ATOM     16  C   ARG A   1      16.962  73.775   4.397  0.00  0.00    +0.224 C 
ATOM     17  O   ARG A   1      17.225  72.789   5.108  0.00  0.00    -0.287 OA
ENDBRANCH  13  16
ENDBRANCH  12  13
ENDBRANCH  11  12
ENDBRANCH  10  11
ENDBRANCH   1  10
TORSDOF 6
REMARK  Name = ../refined-set-2016/2xc0/2xc0_pocket.pdb
REMARK  226 active torsions:
REMARK  status: ('A' for Active; 'I' for Inactive)
REMARK    1  A    between atoms: _1  and  _5
REMARK    2  A    between atoms: _5  and  _6
REMARK    3  A    between atoms: _5  and  _8
REMARK    4  A    between atoms: _8  and  _9
REMARK    5  A    between atoms: _12  and  _14
REMARK    6  A    between atoms: _14  and  _15
REMARK    7  A    between atoms: _14  and  _17
REMARK    8  A    between atoms: _20  and  _22
REMARK    9  A    between atoms: _22  and  _23
REMARK   10  A    between atoms: _22  and  _25
REMARK   11  A    between atoms: _25  and  _26
REMARK   12  A    between atoms: _26  and  _55
REMARK   13  A    between atoms: _27  and  _29
REMARK   14  A    between atoms: _29  and  _30
REMARK   15  A    between atoms: _32  and  _34
REMARK   16  A    between atoms: _34  and  _35
REMARK   17  A    between atoms: _38  and  _40
REMARK   18  A    between atoms: _40  and  _41
REMARK   19  A    between atoms: _40  and  _43
REMARK   20  A    between atoms: _43  and  _44
REMARK   21  A    between atoms: _49  and  _51
REMARK   22  A    between atoms: _51  and  _52
REMARK   23  A    between atoms: _51  and  _54
REMARK   24  A    between atoms: _54  and  _55
REMARK   25  A    between atoms: _56  and  _58
REMARK   26  A    between atoms: _58  and  _59
REMARK   27  A    between atoms: _58  and  _61
REMARK   28  A    between atoms: _61  and  _62
REMARK   29  A    between atoms: _62  and  _63
REMARK   30  A    between atoms: _68  and  _70
REMARK   31  A    between atoms: _70  and  _71
REMARK   32  A    between atoms: _70  and  _73
REMARK   33  A    between atoms: _73  and  _74
REMARK   34  A    between atoms: _80  and  _82
REMARK   35  A    between atoms: _82  and  _83
REMARK   36  A    between atoms: _82  and  _85
REMARK   37  A    between atoms: _85  and  _86
REMARK   38  A    between atoms: _89  and  _91
REMARK   39  A    between atoms: _91  and  _92
REMARK   40  A    between atoms: _91  and  _94
REMARK   41  A    between atoms: _94  and  _95
REMARK   42  A    between atoms: _95  and  _96
REMARK   43  A    between atoms: _96  and  _97
REMARK   44  A    between atoms: _97  and  _98
REMARK   45  A    between atoms: _102  and  _104
REMARK   46  A    between atoms: _104  and  _105
REMARK   47  A    between atoms: _104  and  _107
REMARK   48  A    between atoms: _107  and  _108
REMARK   49  A    between atoms: _108  and  _109
REMARK   50  A    between atoms: _112  and  _114
REMARK   51  A    between atoms: _114  and  _115
REMARK   52  A    between atoms: _114  and  _117
REMARK   53  A    between atoms: _117  and  _118
REMARK   54  A    between atoms: _121  and  _123
REMARK   55  A    between atoms: _123  and  _124
REMARK   56  A    between atoms: _123  and  _126
REMARK   57  A    between atoms: _126  and  _127
REMARK   58  A    between atoms: _132  and  _133
REMARK   59  A    between atoms: _135  and  _137
REMARK   60  A    between atoms: _137  and  _138
REMARK   61  A    between atoms: _137  and  _140
REMARK   62  A    between atoms: _140  and  _141
REMARK   63  A    between atoms: _144  and  _146
REMARK   64  A    between atoms: _146  and  _147
REMARK   65  A    between atoms: _146  and  _149
REMARK   66  A    between atoms: _149  and  _150
REMARK   67  A    between atoms: _153  and  _155
REMARK   68  A    between atoms: _155  and  _156
REMARK   69  A    between atoms: _155  and  _158
REMARK   70  A    between atoms: _161  and  _163
REMARK   71  A    between atoms: _163  and  _164
REMARK   72  A    between atoms: _163  and  _166
REMARK   73  A    between atoms: _166  and  _167
REMARK   74  A    between atoms: _167  and  _168
REMARK   75  A    between atoms: _168  and  _169
REMARK   76  A    between atoms: _178  and  _180
REMARK   77  A    between atoms: _180  and  _181
REMARK   78  A    between atoms: _180  and  _183
REMARK   79  A    between atoms: _183  and  _184
REMARK   80  A    between atoms: _189  and  _191
REMARK   81  A    between atoms: _191  and  _192
REMARK   82  A    between atoms: _191  and  _194
REMARK   83  A    between atoms: _194  and  _195
REMARK   84  A    between atoms: _195  and  _196
REMARK   85  A    between atoms: _199  and  _201
REMARK   86  A    between atoms: _201  and  _202
REMARK   87  A    between atoms: _201  and  _204
REMARK   88  A    between atoms: _204  and  _205
REMARK   89  A    between atoms: _205  and  _206
REMARK   90  A    between atoms: _206  and  _207
REMARK   91  A    between atoms: _207  and  _208
REMARK   92  A    between atoms: _212  and  _214
REMARK   93  A    between atoms: _214  and  _215
REMARK   94  A    between atoms: _217  and  _219
REMARK   95  A    between atoms: _219  and  _220
REMARK   96  A    between atoms: _219  and  _222
REMARK   97  A    between atoms: _225  and  _227
REMARK   98  A    between atoms: _227  and  _228
REMARK   99  A    between atoms: _227  and  _230
REMARK  100  A    between atoms: _230  and  _231
REMARK  101  A    between atoms: _233  and  _235
REMARK  102  A    between atoms: _235  and  _236
REMARK  103  A    between atoms: _235  and  _238
REMARK  104  A    between atoms: _238  and  _239
REMARK  105  A    between atoms: _241  and  _243
REMARK  106  A    between atoms: _243  and  _244
REMARK  107  A    between atoms: _243  and  _246
REMARK  108  A    between atoms: _246  and  _247
REMARK  109  A    between atoms: _253  and  _255
REMARK  110  A    between atoms: _255  and  _256
REMARK  111  A    between atoms: _255  and  _258
REMARK  112  A    between atoms: _258  and  _259
REMARK  113  A    between atoms: _262  and  _264
REMARK  114  A    between atoms: _264  and  _265
REMARK  115  A    between atoms: _264  and  _267
REMARK  116  A    between atoms: _267  and  _268
REMARK  117  A    between atoms: _271  and  _273
REMARK  118  A    between atoms: _273  and  _274
REMARK  119  A    between atoms: _273  and  _276
REMARK  120  A    between atoms: _276  and  _277
REMARK  121  A    between atoms: _280  and  _282
REMARK  122  A    between atoms: _282  and  _283
REMARK  123  A    between atoms: _282  and  _285
REMARK  124  A    between atoms: _285  and  _286
REMARK  125  A    between atoms: _286  and  _287
REMARK  126  A    between atoms: _289  and  _291
REMARK  127  A    between atoms: _291  and  _292
REMARK  128  A    between atoms: _291  and  _294
REMARK  129  A    between atoms: _294  and  _295
REMARK  130  A    between atoms: _301  and  _303
REMARK  131  A    between atoms: _303  and  _304
REMARK  132  A    between atoms: _303  and  _306
REMARK  133  A    between atoms: _308  and  _310
REMARK  134  A    between atoms: _310  and  _311
REMARK  135  A    between atoms: _314  and  _316
REMARK  136  A    between atoms: _316  and  _317
REMARK  137  A    between atoms: _319  and  _321
REMARK  138  A    between atoms: _321  and  _322
REMARK  139  A    between atoms: _321  and  _324
REMARK  140  A    between atoms: _324  and  _325
REMARK  141  A    between atoms: _328  and  _330
REMARK  142  A    between atoms: _330  and  _331
REMARK  143  A    between atoms: _334  and  _336
REMARK  144  A    between atoms: _336  and  _337
REMARK  145  A    between atoms: _336  and  _339
REMARK  146  A    between atoms: _339  and  _340
REMARK  147  A    between atoms: _340  and  _463
REMARK  148  A    between atoms: _341  and  _343
REMARK  149  A    between atoms: _343  and  _344
REMARK  150  A    between atoms: _343  and  _346
REMARK  151  A    between atoms: _346  and  _347
REMARK  152  A    between atoms: _347  and  _348
REMARK  153  A    between atoms: _353  and  _355
REMARK  154  A    between atoms: _355  and  _356
REMARK  155  A    between atoms: _358  and  _360
REMARK  156  A    between atoms: _360  and  _361
REMARK  157  A    between atoms: _360  and  _363
REMARK  158  A    between atoms: _363  and  _364
REMARK  159  A    between atoms: _367  and  _369
REMARK  160  A    between atoms: _369  and  _370
REMARK  161  A    between atoms: _369  and  _372
REMARK  162  A    between atoms: _372  and  _373
REMARK  163  A    between atoms: _375  and  _377
REMARK  164  A    between atoms: _377  and  _378
REMARK  165  A    between atoms: _380  and  _382
REMARK  166  A    between atoms: _382  and  _383
REMARK  167  A    between atoms: _385  and  _387
REMARK  168  A    between atoms: _387  and  _388
REMARK  169  A    between atoms: _387  and  _390
REMARK  170  A    between atoms: _390  and  _391
REMARK  171  A    between atoms: _396  and  _398
REMARK  172  A    between atoms: _398  and  _399
REMARK  173  A    between atoms: _398  and  _401
REMARK  174  A    between atoms: _401  and  _402
REMARK  175  A    between atoms: _405  and  _407
REMARK  176  A    between atoms: _407  and  _408
REMARK  177  A    between atoms: _407  and  _410
REMARK  178  A    between atoms: _413  and  _415
REMARK  179  A    between atoms: _415  and  _416
REMARK  180  A    between atoms: _415  and  _418
REMARK  181  A    between atoms: _418  and  _419
REMARK  182  A    between atoms: _421  and  _423
REMARK  183  A    between atoms: _423  and  _424
REMARK  184  A    between atoms: _423  and  _426
REMARK  185  A    between atoms: _426  and  _427
REMARK  186  A    between atoms: _437  and  _439
REMARK  187  A    between atoms: _439  and  _440
REMARK  188  A    between atoms: _442  and  _444
REMARK  189  A    between atoms: _444  and  _445
REMARK  190  A    between atoms: _444  and  _447
REMARK  191  A    between atoms: _447  and  _448
REMARK  192  A    between atoms: _448  and  _449
REMARK  193  A    between atoms: _452  and  _454
REMARK  194  A    between atoms: _454  and  _455
REMARK  195  A    between atoms: _457  and  _459
REMARK  196  A    between atoms: _459  and  _460
REMARK  197  A    between atoms: _459  and  _462
REMARK  198  A    between atoms: _462  and  _463
REMARK  199  A    between atoms: _464  and  _466
REMARK  200  A    between atoms: _466  and  _467
REMARK  201  A    between atoms: _470  and  _472
REMARK  202  A    between atoms: _472  and  _473
REMARK  203  A    between atoms: _472  and  _475
REMARK  204  A    between atoms: _475  and  _476
REMARK  205  A    between atoms: _476  and  _477
REMARK  206  A    between atoms: _477  and  _478
REMARK  207  A    between atoms: _487  and  _489
REMARK  208  A    between atoms: _489  and  _490
REMARK  209  A    between atoms: _489  and  _492
REMARK  210  A    between atoms: _492  and  _493
REMARK  211  A    between atoms: _498  and  _499
REMARK  212  A    between atoms: _501  and  _503
REMARK  213  A    between atoms: _503  and  _504
REMARK  214  A    between atoms: _506  and  _508
REMARK  215  A    between atoms: _508  and  _509
REMARK  216  A    between atoms: _508  and  _511
REMARK  217  A    between atoms: _511  and  _512
REMARK  218  A    between atoms: _515  and  _517
REMARK  219  A    between atoms: _517  and  _518
REMARK  220  A    between atoms: _517  and  _520
REMARK  221  A    between atoms: _520  and  _521
REMARK  222  A    between atoms: _526  and  _527
REMARK  223  A    between atoms: _529  and  _531
REMARK  224  A    between atoms: _531  and  _532
REMARK  225  A    between atoms: _531  and  _534
REMARK  226  A    between atoms: _534  and  _535
REMARK                            x       y       z     vdW  Elec       q    Type
REMARK                         _______ _______ _______ _____ _____    ______ ____
ROOT
ATOM      1  C   GLU A   2      10.427  73.801   5.242  0.00  0.00    +0.241 C 
ATOM      2  N   LYS A   3       9.959  75.042   5.279  0.00  0.00    -0.297 N 
ATOM      3  H   LYS A   3      10.058  75.606   6.147  0.00  0.00    +0.150 HD
ATOM      4  O   GLU A   2      10.412  73.123   4.216  0.00  0.00    -0.273 OA
ENDROOT
BRANCH   2   5
ATOM      5  CA  LYS A   3       9.304  75.622   4.105  0.00  0.00    +0.149 C 
BRANCH   5   6
ATOM      6  C   LYS A   3      10.200  76.606   3.342  0.00  0.00    +0.241 C 
ATOM      7  N   GLY A   4      11.431  76.772   3.832  0.00  0.00    -0.296 N 
ATOM      8  H   GLY A   4      11.744  76.153   4.607  0.00  0.00    +0.150 HD
ATOM      9  O   LYS A   3       9.763  77.208   2.342  0.00  0.00    -0.273 OA
BRANCH   7  10
ATOM     10  CA  GLY A   4      12.355  77.779   3.333  0.00  0.00    +0.163 C 
BRANCH  10  11
ATOM     11  C   GLY A   4      13.177  77.381   2.117  0.00  0.00    +0.229 C 
ATOM     12  O   GLY A   4      12.882  76.385   1.441  0.00  0.00    -0.286 OA
ENDBRANCH  10  11
ENDBRANCH   7  10
ENDBRANCH   5   6
BRANCH   5  13
ATOM     13  CB  LYS A   3       7.996  76.320   4.517  0.00  0.00    +0.029 C 
BRANCH  13  14
ATOM     14  CG  LYS A   3       6.916  75.397   5.088  0.00  0.00    +0.000 C 
BRANCH  14  15
ATOM     15  CD  LYS A   3       6.238  74.539   4.012  0.00  0.00    -0.024 C 
BRANCH  15  16
ATOM     16  CE  LYS A   3       5.205  73.610   4.634  0.00  0.00    -0.086 C 
BRANCH  16  17
ATOM     17  NZ  LYS A   3       4.084  73.300   3.699  0.00  0.00    +0.380 N 
ATOM     18  HZ1 LYS A   3       3.408  72.665   4.169  0.00  0.00    -0.089 HD
ATOM     19  HZ2 LYS A   3       3.604  74.183   3.431  0.00  0.00    -0.089 HD
ATOM     20  HZ3 LYS A   3       4.462  72.837   2.848  0.00  0.00    -0.089 HD
ENDBRANCH  16  17
ENDBRANCH  15  16
ENDBRANCH  14  15
ENDBRANCH  13  14
ENDBRANCH   5  13
ENDBRANCH   2   5
BRANCH   1  21
ATOM     21  CA  GLU A   2      11.023  73.228   6.539  0.00  0.00    +0.149 C 
BRANCH  21  23
ATOM     22  C   HIS A   1      12.962  74.700   6.518  0.00  0.00    +0.239 C 
ATOM     23  N   GLU A   2      11.991  74.086   7.188  0.00  0.00    -0.297 N 
ATOM     24  H   GLU A   2      11.925  74.228   8.216  0.00  0.00    +0.150 HD
ATOM     25  O   HIS A   1      13.079  74.656   5.286  0.00  0.00    -0.274 OA
BRANCH  22  26
ATOM     26  CA  HIS A   1      13.946  75.498   7.341  0.00  0.00    +0.151 C 
BRANCH  26  27
ATOM     27  N   HIS A   1      15.177  75.591   6.561  0.00  0.00    -0.238 NA
ATOM     28  H   HIS A   1      15.102  75.685   5.528  0.00  0.00    +0.142 HD
ENDBRANCH  26  27
BRANCH  26  29
ATOM     29  CB  HIS A   1      13.386  76.894   7.663  0.00  0.00    +0.074 C 
BRANCH  29  30
ATOM     30  CG  HIS A   1      14.307  77.720   8.501  0.00  0.00    +0.082 A 
ATOM     31  ND1 HIS A   1      14.567  77.431   9.823  0.00  0.00    -0.227 NA
ATOM     32  CE1 HIS A   1      15.429  78.309  10.302  0.00  0.00    +0.199 A 
ATOM     33  NE2 HIS A   1      15.742  79.153   9.336  0.00  0.00    -0.221 NA
ATOM     34  CD2 HIS A   1      15.058  78.803   8.197  0.00  0.00    +0.115 A 
ENDBRANCH  29  30
ENDBRANCH  26  29
ENDBRANCH  22  26
ENDBRANCH  21  23
BRANCH  21  35
ATOM     35  CB  GLU A   2       9.914  72.833   7.520  0.00  0.00    +0.041 C 
BRANCH  35  36
ATOM     36  CG  GLU A   2       8.900  71.882   6.929  0.00  0.00    +0.116 C 
BRANCH  36  37
ATOM     37  CD  GLU A   2       7.850  71.450   7.925  0.00  0.00    +0.365 C 
ATOM     38  OE2 GLU A   2       8.188  71.191   9.107  0.00  0.00    -0.246 OA
ATOM     39  OE1 GLU A   2       6.680  71.347   7.506  0.00  0.00    -0.246 OA
ENDBRANCH  36  37
ENDBRANCH  35  36
ENDBRANCH  21  35
ENDBRANCH   1  21
TORSDOF 18
REMARK  Name = ../refined-set-2016/2xc0/2xc0_pocket.pdb
REMARK  226 active torsions:
REMARK  status: ('A' for Active; 'I' for Inactive)
REMARK    1  A    between atoms: _1  and  _5
REMARK    2  A    between atoms: _5  and  _6
REMARK    3  A    between atoms: _5  and  _8
REMARK    4  A    between atoms: _8  and  _9
REMARK    5  A    between atoms: _12  and  _14
REMARK    6  A    between atoms: _14  and  _15
REMARK    7  A    between atoms: _14  and  _17
REMARK    8  A    between atoms: _20  and  _22
REMARK    9  A    between atoms: _22  and  _23
REMARK   10  A    between atoms: _22  and  _25
REMARK   11  A    between atoms: _25  and  _26
REMARK   12  A    between atoms: _26  and  _55
REMARK   13  A    between atoms: _27  and  _29
REMARK   14  A    between atoms: _29  and  _30
REMARK   15  A    between atoms: _32  and  _34
REMARK   16  A    between atoms: _34  and  _35
REMARK   17  A    between atoms: _38  and  _40
REMARK   18  A    between atoms: _40  and  _41
REMARK   19  A    between atoms: _40  and  _43
REMARK   20  A    between atoms: _43  and  _44
REMARK   21  A    between atoms: _49  and  _51
REMARK   22  A    between atoms: _51  and  _52
REMARK   23  A    between atoms: _51  and  _54
REMARK   24  A    between atoms: _54  and  _55
REMARK   25  A    between atoms: _56  and  _58
REMARK   26  A    between atoms: _58  and  _59
REMARK   27  A    between atoms: _58  and  _61
REMARK   28  A    between atoms: _61  and  _62
REMARK   29  A    between atoms: _62  and  _63
REMARK   30  A    between atoms: _68  and  _70
REMARK   31  A    between atoms: _70  and  _71
REMARK   32  A    between atoms: _70  and  _73
REMARK   33  A    between atoms: _73  and  _74
REMARK   34  A    between atoms: _80  and  _82
REMARK   35  A    between atoms: _82  and  _83
REMARK   36  A    between atoms: _82  and  _85
REMARK   37  A    between atoms: _85  and  _86
REMARK   38  A    between atoms: _89  and  _91
REMARK   39  A    between atoms: _91  and  _92
REMARK   40  A    between atoms: _91  and  _94
REMARK   41  A    between atoms: _94  and  _95
REMARK   42  A    between atoms: _95  and  _96
REMARK   43  A    between atoms: _96  and  _97
REMARK   44  A    between atoms: _97  and  _98
REMARK   45  A    between atoms: _102  and  _104
REMARK   46  A    between atoms: _104  and  _105
REMARK   47  A    between atoms: _104  and  _107
REMARK   48  A    between atoms: _107  and  _108
REMARK   49  A    between atoms: _108  and  _109
REMARK   50  A    between atoms: _112  and  _114
REMARK   51  A    between atoms: _114  and  _115
REMARK   52  A    between atoms: _114  and  _117
REMARK   53  A    between atoms: _117  and  _118
REMARK   54  A    between atoms: _121  and  _123
REMARK   55  A    between atoms: _123  and  _124
REMARK   56  A    between atoms: _123  and  _126
REMARK   57  A    between atoms: _126  and  _127
REMARK   58  A    between atoms: _132  and  _133
REMARK   59  A    between atoms: _135  and  _137
REMARK   60  A    between atoms: _137  and  _138
REMARK   61  A    between atoms: _137  and  _140
REMARK   62  A    between atoms: _140  and  _141
REMARK   63  A    between atoms: _144  and  _146
REMARK   64  A    between atoms: _146  and  _147
REMARK   65  A    between atoms: _146  and  _149
REMARK   66  A    between atoms: _149  and  _150
REMARK   67  A    between atoms: _153  and  _155
REMARK   68  A    between atoms: _155  and  _156
REMARK   69  A    between atoms: _155  and  _158
REMARK   70  A    between atoms: _161  and  _163
REMARK   71  A    between atoms: _163  and  _164
REMARK   72  A    between atoms: _163  and  _166
REMARK   73  A    between atoms: _166  and  _167
REMARK   74  A    between atoms: _167  and  _168
REMARK   75  A    between atoms: _168  and  _169
REMARK   76  A    between atoms: _178  and  _180
REMARK   77  A    between atoms: _180  and  _181
REMARK   78  A    between atoms: _180  and  _183
REMARK   79  A    between atoms: _183  and  _184
REMARK   80  A    between atoms: _189  and  _191
REMARK   81  A    between atoms: _191  and  _192
REMARK   82  A    between atoms: _191  and  _194
REMARK   83  A    between atoms: _194  and  _195
REMARK   84  A    between atoms: _195  and  _196
REMARK   85  A    between atoms: _199  and  _201
REMARK   86  A    between atoms: _201  and  _202
REMARK   87  A    between atoms: _201  and  _204
REMARK   88  A    between atoms: _204  and  _205
REMARK   89  A    between atoms: _205  and  _206
REMARK   90  A    between atoms: _206  and  _207
REMARK   91  A    between atoms: _207  and  _208
REMARK   92  A    between atoms: _212  and  _214
REMARK   93  A    between atoms: _214  and  _215
REMARK   94  A    between atoms: _217  and  _219
REMARK   95  A    between atoms: _219  and  _220
REMARK   96  A    between atoms: _219  and  _222
REMARK   97  A    between atoms: _225  and  _227
REMARK   98  A    between atoms: _227  and  _228
REMARK   99  A    between atoms: _227  and  _230
REMARK  100  A    between atoms: _230  and  _231
REMARK  101  A    between atoms: _233  and  _235
REMARK  102  A    between atoms: _235  and  _236
REMARK  103  A    between atoms: _235  and  _238
REMARK  104  A    between atoms: _238  and  _239
REMARK  105  A    between atoms: _241  and  _243
REMARK  106  A    between atoms: _243  and  _244
REMARK  107  A    between atoms: _243  and  _246
REMARK  108  A    between atoms: _246  and  _247
REMARK  109  A    between atoms: _253  and  _255
REMARK  110  A    between atoms: _255  and  _256
REMARK  111  A    between atoms: _255  and  _258
REMARK  112  A    between atoms: _258  and  _259
REMARK  113  A    between atoms: _262  and  _264
REMARK  114  A    between atoms: _264  and  _265
REMARK  115  A    between atoms: _264  and  _267
REMARK  116  A    between atoms: _267  and  _268
REMARK  117  A    between atoms: _271  and  _273
REMARK  118  A    between atoms: _273  and  _274
REMARK  119  A    between atoms: _273  and  _276
REMARK  120  A    between atoms: _276  and  _277
REMARK  121  A    between atoms: _280  and  _282
REMARK  122  A    between atoms: _282  and  _283
REMARK  123  A    between atoms: _282  and  _285
REMARK  124  A    between atoms: _285  and  _286
REMARK  125  A    between atoms: _286  and  _287
REMARK  126  A    between atoms: _289  and  _291
REMARK  127  A    between atoms: _291  and  _292
REMARK  128  A    between atoms: _291  and  _294
REMARK  129  A    between atoms: _294  and  _295
REMARK  130  A    between atoms: _301  and  _303
REMARK  131  A    between atoms: _303  and  _304
REMARK  132  A    between atoms: _303  and  _306
REMARK  133  A    between atoms: _308  and  _310
REMARK  134  A    between atoms: _310  and  _311
REMARK  135  A    between atoms: _314  and  _316
REMARK  136  A    between atoms: _316  and  _317
REMARK  137  A    between atoms: _319  and  _321
REMARK  138  A    between atoms: _321  and  _322
REMARK  139  A    between atoms: _321  and  _324
REMARK  140  A    between atoms: _324  and  _325
REMARK  141  A    between atoms: _328  and  _330
REMARK  142  A    between atoms: _330  and  _331
REMARK  143  A    between atoms: _334  and  _336
REMARK  144  A    between atoms: _336  and  _337
REMARK  145  A    between atoms: _336  and  _339
REMARK  146  A    between atoms: _339  and  _340
REMARK  147  A    between atoms: _340  and  _463
REMARK  148  A    between atoms: _341  and  _343
REMARK  149  A    between atoms: _343  and  _344
REMARK  150  A    between atoms: _343  and  _346
REMARK  151  A    between atoms: _346  and  _347
REMARK  152  A    between atoms: _347  and  _348
REMARK  153  A    between atoms: _353  and  _355
REMARK  154  A    between atoms: _355  and  _356
REMARK  155  A    between atoms: _358  and  _360
REMARK  156  A    between atoms: _360  and  _361
REMARK  157  A    between atoms: _360  and  _363
REMARK  158  A    between atoms: _363  and  _364
REMARK  159  A    between atoms: _367  and  _369
REMARK  160  A    between atoms: _369  and  _370
REMARK  161  A    between atoms: _369  and  _372
REMARK  162  A    between atoms: _372  and  _373
REMARK  163  A    between atoms: _375  and  _377
REMARK  164  A    between atoms: _377  and  _378
REMARK  165  A    between atoms: _380  and  _382
REMARK  166  A    between atoms: _382  and  _383
REMARK  167  A    between atoms: _385  and  _387
REMARK  168  A    between atoms: _387  and  _388
REMARK  169  A    between atoms: _387  and  _390
REMARK  170  A    between atoms: _390  and  _391
REMARK  171  A    between atoms: _396  and  _398
REMARK  172  A    between atoms: _398  and  _399
REMARK  173  A    between atoms: _398  and  _401
REMARK  174  A    between atoms: _401  and  _402
REMARK  175  A    between atoms: _405  and  _407
REMARK  176  A    between atoms: _407  and  _408
REMARK  177  A    between atoms: _407  and  _410
REMARK  178  A    between atoms: _413  and  _415
REMARK  179  A    between atoms: _415  and  _416
REMARK  180  A    between atoms: _415  and  _418
REMARK  181  A    between atoms: _418  and  _419
REMARK  182  A    between atoms: _421  and  _423
REMARK  183  A    between atoms: _423  and  _424
REMARK  184  A    between atoms: _423  and  _426
REMARK  185  A    between atoms: _426  and  _427
REMARK  186  A    between atoms: _437  and  _439
REMARK  187  A    between atoms: _439  and  _440
REMARK  188  A    between atoms: _442  and  _444
REMARK  189  A    between atoms: _444  and  _445
REMARK  190  A    between atoms: _444  and  _447
REMARK  191  A    between atoms: _447  and  _448
REMARK  192  A    between atoms: _448  and  _449
REMARK  193  A    between atoms: _452  and  _454
REMARK  194  A    between atoms: _454  and  _455
REMARK  195  A    between atoms: _457  and  _459
REMARK  196  A    between atoms: _459  and  _460
REMARK  197  A    between atoms: _459  and  _462
REMARK  198  A    between atoms: _462  and  _463
REMARK  199  A    between atoms: _464  and  _466
REMARK  200  A    between atoms: _466  and  _467
REMARK  201  A    between atoms: _470  and  _472
REMARK  202  A    between atoms: _472  and  _473
REMARK  203  A    between atoms: _472  and  _475
REMARK  204  A    between atoms: _475  and  _476
REMARK  205  A    between atoms: _476  and  _477
REMARK  206  A    between atoms: _477  and  _478
REMARK  207  A    between atoms: _487  and  _489
REMARK  208  A    between atoms: _489  and  _490
REMARK  209  A    between atoms: _489  and  _492
REMARK  210  A    between atoms: _492  and  _493
REMARK  211  A    between atoms: _498  and  _499
REMARK  212  A    between atoms: _501  and  _503
REMARK  213  A    between atoms: _503  and  _504
REMARK  214  A    between atoms: _506  and  _508
REMARK  215  A    between atoms: _508  and  _509
REMARK  216  A    between atoms: _508  and  _511
REMARK  217  A    between atoms: _511  and  _512
REMARK  218  A    between atoms: _515  and  _517
REMARK  219  A    between atoms: _517  and  _518
REMARK  220  A    between atoms: _517  and  _520
REMARK  221  A    between atoms: _520  and  _521
REMARK  222  A    between atoms: _526  and  _527
REMARK  223  A    between atoms: _529  and  _531
REMARK  224  A    between atoms: _531  and  _532
REMARK  225  A    between atoms: _531  and  _534
REMARK  226  A    between atoms: _534  and  _535
REMARK                            x       y       z     vdW  Elec       q    Type
REMARK                         _______ _______ _______ _____ _____    ______ ____
ROOT
ATOM      1  CA  VAL A   1      22.560  63.348  14.396  0.00  0.00    +0.133 C 
ENDROOT
BRANCH   1   2
ATOM      2  CB  VAL A   1      21.645  63.123  13.134  0.00  0.00    +0.023 C 
ATOM      3  CG2 VAL A   1      21.140  64.457  12.579  0.00  0.00    +0.002 C 
ATOM      4  CG1 VAL A   1      22.389  62.365  12.059  0.00  0.00    +0.002 C 
ENDBRANCH   1   2
BRANCH   1   5
ATOM      5  N   VAL A   1      23.884  63.877  14.047  0.00  0.00    -0.239 NA
ATOM      6  H   VAL A   1      24.573  63.258  13.573  0.00  0.00    +0.142 HD
ENDBRANCH   1   5
BRANCH   1   7
ATOM      7  C   VAL A   1      22.708  62.071  15.211  0.00  0.00    +0.224 C 
ATOM      8  O   VAL A   1      23.353  61.112  14.767  0.00  0.00    -0.287 OA
ENDBRANCH   1   7
TORSDOF 3
REMARK  Name = ../refined-set-2016/2xc0/2xc0_pocket.pdb
REMARK  226 active torsions:
REMARK  status: ('A' for Active; 'I' for Inactive)
REMARK    1  A    between atoms: _1  and  _5
REMARK    2  A    between atoms: _5  and  _6
REMARK    3  A    between atoms: _5  and  _8
REMARK    4  A    between atoms: _8  and  _9
REMARK    5  A    between atoms: _12  and  _14
REMARK    6  A    between atoms: _14  and  _15
REMARK    7  A    between atoms: _14  and  _17
REMARK    8  A    between atoms: _20  and  _22
REMARK    9  A    between atoms: _22  and  _23
REMARK   10  A    between atoms: _22  and  _25
REMARK   11  A    between atoms: _25  and  _26
REMARK   12  A    between atoms: _26  and  _55
REMARK   13  A    between atoms: _27  and  _29
REMARK   14  A    between atoms: _29  and  _30
REMARK   15  A    between atoms: _32  and  _34
REMARK   16  A    between atoms: _34  and  _35
REMARK   17  A    between atoms: _38  and  _40
REMARK   18  A    between atoms: _40  and  _41
REMARK   19  A    between atoms: _40  and  _43
REMARK   20  A    between atoms: _43  and  _44
REMARK   21  A    between atoms: _49  and  _51
REMARK   22  A    between atoms: _51  and  _52
REMARK   23  A    between atoms: _51  and  _54
REMARK   24  A    between atoms: _54  and  _55
REMARK   25  A    between atoms: _56  and  _58
REMARK   26  A    between atoms: _58  and  _59
REMARK   27  A    between atoms: _58  and  _61
REMARK   28  A    between atoms: _61  and  _62
REMARK   29  A    between atoms: _62  and  _63
REMARK   30  A    between atoms: _68  and  _70
REMARK   31  A    between atoms: _70  and  _71
REMARK   32  A    between atoms: _70  and  _73
REMARK   33  A    between atoms: _73  and  _74
REMARK   34  A    between atoms: _80  and  _82
REMARK   35  A    between atoms: _82  and  _83
REMARK   36  A    between atoms: _82  and  _85
REMARK   37  A    between atoms: _85  and  _86
REMARK   38  A    between atoms: _89  and  _91
REMARK   39  A    between atoms: _91  and  _92
REMARK   40  A    between atoms: _91  and  _94
REMARK   41  A    between atoms: _94  and  _95
REMARK   42  A    between atoms: _95  and  _96
REMARK   43  A    between atoms: _96  and  _97
REMARK   44  A    between atoms: _97  and  _98
REMARK   45  A    between atoms: _102  and  _104
REMARK   46  A    between atoms: _104  and  _105
REMARK   47  A    between atoms: _104  and  _107
REMARK   48  A    between atoms: _107  and  _108
REMARK   49  A    between atoms: _108  and  _109
REMARK   50  A    between atoms: _112  and  _114
REMARK   51  A    between atoms: _114  and  _115
REMARK   52  A    between atoms: _114  and  _117
REMARK   53  A    between atoms: _117  and  _118
REMARK   54  A    between atoms: _121  and  _123
REMARK   55  A    between atoms: _123  and  _124
REMARK   56  A    between atoms: _123  and  _126
REMARK   57  A    between atoms: _126  and  _127
REMARK   58  A    between atoms: _132  and  _133
REMARK   59  A    between atoms: _135  and  _137
REMARK   60  A    between atoms: _137  and  _138
REMARK   61  A    between atoms: _137  and  _140
REMARK   62  A    between atoms: _140  and  _141
REMARK   63  A    between atoms: _144  and  _146
REMARK   64  A    between atoms: _146  and  _147
REMARK   65  A    between atoms: _146  and  _149
REMARK   66  A    between atoms: _149  and  _150
REMARK   67  A    between atoms: _153  and  _155
REMARK   68  A    between atoms: _155  and  _156
REMARK   69  A    between atoms: _155  and  _158
REMARK   70  A    between atoms: _161  and  _163
REMARK   71  A    between atoms: _163  and  _164
REMARK   72  A    between atoms: _163  and  _166
REMARK   73  A    between atoms: _166  and  _167
REMARK   74  A    between atoms: _167  and  _168
REMARK   75  A    between atoms: _168  and  _169
REMARK   76  A    between atoms: _178  and  _180
REMARK   77  A    between atoms: _180  and  _181
REMARK   78  A    between atoms: _180  and  _183
REMARK   79  A    between atoms: _183  and  _184
REMARK   80  A    between atoms: _189  and  _191
REMARK   81  A    between atoms: _191  and  _192
REMARK   82  A    between atoms: _191  and  _194
REMARK   83  A    between atoms: _194  and  _195
REMARK   84  A    between atoms: _195  and  _196
REMARK   85  A    between atoms: _199  and  _201
REMARK   86  A    between atoms: _201  and  _202
REMARK   87  A    between atoms: _201  and  _204
REMARK   88  A    between atoms: _204  and  _205
REMARK   89  A    between atoms: _205  and  _206
REMARK   90  A    between atoms: _206  and  _207
REMARK   91  A    between atoms: _207  and  _208
REMARK   92  A    between atoms: _212  and  _214
REMARK   93  A    between atoms: _214  and  _215
REMARK   94  A    between atoms: _217  and  _219
REMARK   95  A    between atoms: _219  and  _220
REMARK   96  A    between atoms: _219  and  _222
REMARK   97  A    between atoms: _225  and  _227
REMARK   98  A    between atoms: _227  and  _228
REMARK   99  A    between atoms: _227  and  _230
REMARK  100  A    between atoms: _230  and  _231
REMARK  101  A    between atoms: _233  and  _235
REMARK  102  A    between atoms: _235  and  _236
REMARK  103  A    between atoms: _235  and  _238
REMARK  104  A    between atoms: _238  and  _239
REMARK  105  A    between atoms: _241  and  _243
REMARK  106  A    between atoms: _243  and  _244
REMARK  107  A    between atoms: _243  and  _246
REMARK  108  A    between atoms: _246  and  _247
REMARK  109  A    between atoms: _253  and  _255
REMARK  110  A    between atoms: _255  and  _256
REMARK  111  A    between atoms: _255  and  _258
REMARK  112  A    between atoms: _258  and  _259
REMARK  113  A    between atoms: _262  and  _264
REMARK  114  A    between atoms: _264  and  _265
REMARK  115  A    between atoms: _264  and  _267
REMARK  116  A    between atoms: _267  and  _268
REMARK  117  A    between atoms: _271  and  _273
REMARK  118  A    between atoms: _273  and  _274
REMARK  119  A    between atoms: _273  and  _276
REMARK  120  A    between atoms: _276  and  _277
REMARK  121  A    between atoms: _280  and  _282
REMARK  122  A    between atoms: _282  and  _283
REMARK  123  A    between atoms: _282  and  _285
REMARK  124  A    between atoms: _285  and  _286
REMARK  125  A    between atoms: _286  and  _287
REMARK  126  A    between atoms: _289  and  _291
REMARK  127  A    between atoms: _291  and  _292
REMARK  128  A    between atoms: _291  and  _294
REMARK  129  A    between atoms: _294  and  _295
REMARK  130  A    between atoms: _301  and  _303
REMARK  131  A    between atoms: _303  and  _304
REMARK  132  A    between atoms: _303  and  _306
REMARK  133  A    between atoms: _308  and  _310
REMARK  134  A    between atoms: _310  and  _311
REMARK  135  A    between atoms: _314  and  _316
REMARK  136  A    between atoms: _316  and  _317
REMARK  137  A    between atoms: _319  and  _321
REMARK  138  A    between atoms: _321  and  _322
REMARK  139  A    between atoms: _321  and  _324
REMARK  140  A    between atoms: _324  and  _325
REMARK  141  A    between atoms: _328  and  _330
REMARK  142  A    between atoms: _330  and  _331
REMARK  143  A    between atoms: _334  and  _336
REMARK  144  A    between atoms: _336  and  _337
REMARK  145  A    between atoms: _336  and  _339
REMARK  146  A    between atoms: _339  and  _340
REMARK  147  A    between atoms: _340  and  _463
REMARK  148  A    between atoms: _341  and  _343
REMARK  149  A    between atoms: _343  and  _344
REMARK  150  A    between atoms: _343  and  _346
REMARK  151  A    between atoms: _346  and  _347
REMARK  152  A    between atoms: _347  and  _348
REMARK  153  A    between atoms: _353  and  _355
REMARK  154  A    between atoms: _355  and  _356
REMARK  155  A    between atoms: _358  and  _360
REMARK  156  A    between atoms: _360  and  _361
REMARK  157  A    between atoms: _360  and  _363
REMARK  158  A    between atoms: _363  and  _364
REMARK  159  A    between atoms: _367  and  _369
REMARK  160  A    between atoms: _369  and  _370
REMARK  161  A    between atoms: _369  and  _372
REMARK  162  A    between atoms: _372  and  _373
REMARK  163  A    between atoms: _375  and  _377
REMARK  164  A    between atoms: _377  and  _378
REMARK  165  A    between atoms: _380  and  _382
REMARK  166  A    between atoms: _382  and  _383
REMARK  167  A    between atoms: _385  and  _387
REMARK  168  A    between atoms: _387  and  _388
REMARK  169  A    between atoms: _387  and  _390
REMARK  170  A    between atoms: _390  and  _391
REMARK  171  A    between atoms: _396  and  _398
REMARK  172  A    between atoms: _398  and  _399
REMARK  173  A    between atoms: _398  and  _401
REMARK  174  A    between atoms: _401  and  _402
REMARK  175  A    between atoms: _405  and  _407
REMARK  176  A    between atoms: _407  and  _408
REMARK  177  A    between atoms: _407  and  _410
REMARK  178  A    between atoms: _413  and  _415
REMARK  179  A    between atoms: _415  and  _416
REMARK  180  A    between atoms: _415  and  _418
REMARK  181  A    between atoms: _418  and  _419
REMARK  182  A    between atoms: _421  and  _423
REMARK  183  A    between atoms: _423  and  _424
REMARK  184  A    between atoms: _423  and  _426
REMARK  185  A    between atoms: _426  and  _427
REMARK  186  A    between atoms: _437  and  _439
REMARK  187  A    between atoms: _439  and  _440
REMARK  188  A    between atoms: _442  and  _444
REMARK  189  A    between atoms: _444  and  _445
REMARK  190  A    between atoms: _444  and  _447
REMARK  191  A    between atoms: _447  and  _448
REMARK  192  A    between atoms: _448  and  _449
REMARK  193  A    between atoms: _452  and  _454
REMARK  194  A    between atoms: _454  and  _455
REMARK  195  A    between atoms: _457  and  _459
REMARK  196  A    between atoms: _459  and  _460
REMARK  197  A    between atoms: _459  and  _462
REMARK  198  A    between atoms: _462  and  _463
REMARK  199  A    between atoms: _464  and  _466
REMARK  200  A    between atoms: _466  and  _467
REMARK  201  A    between atoms: _470  and  _472
REMARK  202  A    between atoms: _472  and  _473
REMARK  203  A    between atoms: _472  and  _475
REMARK  204  A    between atoms: _475  and  _476
REMARK  205  A    between atoms: _476  and  _477
REMARK  206  A    between atoms: _477  and  _478
REMARK  207  A    between atoms: _487  and  _489
REMARK  208  A    between atoms: _489  and  _490
REMARK  209  A    between atoms: _489  and  _492
REMARK  210  A    between atoms: _492  and  _493
REMARK  211  A    between atoms: _498  and  _499
REMARK  212  A    between atoms: _501  and  _503
REMARK  213  A    between atoms: _503  and  _504
REMARK  214  A    between atoms: _506  and  _508
REMARK  215  A    between atoms: _508  and  _509
REMARK  216  A    between atoms: _508  and  _511
REMARK  217  A    between atoms: _511  and  _512
REMARK  218  A    between atoms: _515  and  _517
REMARK  219  A    between atoms: _517  and  _518
REMARK  220  A    between atoms: _517  and  _520
REMARK  221  A    between atoms: _520  and  _521
REMARK  222  A    between atoms: _526  and  _527
REMARK  223  A    between atoms: _529  and  _531
REMARK  224  A    between atoms: _531  and  _532
REMARK  225  A    between atoms: _531  and  _534
REMARK  226  A    between atoms: _534  and  _535
REMARK                            x       y       z     vdW  Elec       q    Type
REMARK                         _______ _______ _______ _____ _____    ______ ____
ROOT
ATOM      1  C   PHE A   3       5.225  54.670   8.768  0.00  0.00    +0.241 C 
ATOM      2  O   PHE A   3       5.957  54.872   9.747  0.00  0.00    -0.273 OA
ATOM      3  N   ILE A   4       5.125  53.504   8.133  0.00  0.00    -0.297 N 
ATOM      4  H   ILE A   4       4.455  53.435   7.341  0.00  0.00    +0.150 HD
ENDROOT
BRANCH   3   5
ATOM      5  CA  ILE A   4       5.894  52.323   8.479  0.00  0.00    +0.149 C 
BRANCH   5   6
ATOM      6  C   ILE A   4       7.398  52.557   8.362  0.00  0.00    +0.241 C 
ATOM      7  N   ILE A   5       8.099  52.229   9.442  0.00  0.00    -0.297 N 
ATOM      8  H   ILE A   5       7.596  51.957  10.311  0.00  0.00    +0.150 HD
ATOM      9  O   ILE A   4       7.902  53.062   7.342  0.00  0.00    -0.273 OA
BRANCH   7  10
ATOM     10  CA  ILE A   5       9.548  52.242   9.438  0.00  0.00    +0.149 C 
BRANCH  10  11
ATOM     11  C   ILE A   5       9.978  50.807   9.173  0.00  0.00    +0.241 C 
ATOM     12  O   ILE A   5       9.669  49.907   9.952  0.00  0.00    -0.273 OA
ATOM     13  N   THR A   6      10.680  50.578   8.071  0.00  0.00    -0.296 N 
ATOM     14  H   THR A   6      10.973  51.366   7.458  0.00  0.00    +0.150 HD
BRANCH  13  15
ATOM     15  CA  THR A   6      11.034  49.205   7.732  0.00  0.00    +0.164 C 
BRANCH  15  16
ATOM     16  CB  THR A   6      10.958  48.953   6.232  0.00  0.00    +0.136 C 
ATOM     17  CG2 THR A   6       9.602  49.401   5.630  0.00  0.00    +0.034 C 
BRANCH  16  18
ATOM     18  OG1 THR A   6      12.031  49.651   5.608  0.00  0.00    -0.382 OA
ATOM     19  HG1 THR A   6      11.998  49.499   4.630  0.00  0.00    +0.210 HD
ENDBRANCH  16  18
ENDBRANCH  15  16
BRANCH  15  20
ATOM     20  C   THR A   6      12.444  48.837   8.209  0.00  0.00    +0.229 C 
ATOM     21  O   THR A   6      13.219  49.706   8.618  0.00  0.00    -0.286 OA
ENDBRANCH  15  20
ENDBRANCH  13  15
ENDBRANCH  10  11
BRANCH  10  22
ATOM     22  CB  ILE A   5      10.150  52.740  10.780  0.00  0.00    +0.027 C 
ATOM     23  CG2 ILE A   5      11.681  52.685  10.720  0.00  0.00    +0.002 C 
BRANCH  22  24
ATOM     24  CG1 ILE A   5       9.573  54.122  11.178  0.00  0.00    +0.002 C 
ATOM     25  CD1 ILE A   5       9.726  55.242  10.084  0.00  0.00    +0.000 C 
ENDBRANCH  22  24
ENDBRANCH  10  22
ENDBRANCH   7  10
ENDBRANCH   5   6
BRANCH   5  26
ATOM     26  CB  ILE A   4       5.427  51.098   7.653  0.00  0.00    +0.027 C 
ATOM     27  CG2 ILE A   4       6.377  49.898   7.870  0.00  0.00    +0.002 C 
BRANCH  26  28
ATOM     28  CG1 ILE A   4       3.992  50.702   8.083  0.00  0.00    +0.002 C 
ATOM     29  CD1 ILE A   4       3.208  49.935   6.990  0.00  0.00    +0.000 C 
ENDBRANCH  26  28
ENDBRANCH   5  26
ENDBRANCH   3   5
BRANCH   1  30
ATOM     30  CA  PHE A   3       4.375  55.792   8.198  0.00  0.00    +0.153 C 
BRANCH  30  33
ATOM     31  C   SER A   2       2.891  57.051   9.623  0.00  0.00    +0.243 C 
ATOM     32  O   SER A   2       1.912  56.405   9.257  0.00  0.00    -0.273 OA
ATOM     33  N   PHE A   3       4.123  56.775   9.218  0.00  0.00    -0.297 N 
ATOM     34  H   PHE A   3       4.925  57.280   9.647  0.00  0.00    +0.150 HD
BRANCH  31  35
ATOM     35  CA  SER A   2       2.743  58.235  10.561  0.00  0.00    +0.178 C 
BRANCH  35  38
ATOM     36  C   SER A   1       4.503  57.714  12.180  0.00  0.00    +0.241 C 
ATOM     37  O   SER A   1       3.873  56.752  12.625  0.00  0.00    -0.274 OA
ATOM     38  N   SER A   2       4.027  58.510  11.216  0.00  0.00    -0.295 N 
ATOM     39  H   SER A   2       4.579  59.342  10.924  0.00  0.00    +0.150 HD
BRANCH  36  40
ATOM     40  CA  SER A   1       5.903  58.016  12.698  0.00  0.00    +0.174 C 
BRANCH  40  41
ATOM     41  N   SER A   1       6.032  57.879  14.151  0.00  0.00    -0.236 NA
ATOM     42  H   SER A   1       6.140  56.930  14.563  0.00  0.00    +0.142 HD
ENDBRANCH  40  41
BRANCH  40  43
ATOM     43  CB  SER A   1       6.906  57.078  12.010  0.00  0.00    +0.163 C 
BRANCH  43  44
ATOM     44  OG  SER A   1       6.824  57.191  10.594  0.00  0.00    -0.380 OA
ATOM     45  H   SER A   1       7.025  58.123  10.326  0.00  0.00    +0.211 HD
ENDBRANCH  43  44
ENDBRANCH  40  43
ENDBRANCH  36  40
ENDBRANCH  35  38
BRANCH  35  46
ATOM     46  CB  SER A   2       2.234  59.459   9.751  0.00  0.00    +0.166 C 
BRANCH  46  47
ATOM     47  OG  SER A   2       2.134  60.607  10.571  0.00  0.00    -0.380 OA
ATOM     48  H   SER A   2       3.025  60.823  10.945  0.00  0.00    +0.211 HD
ENDBRANCH  46  47
ENDBRANCH  35  46
ENDBRANCH  31  35
ENDBRANCH  30  33
BRANCH  30  49
ATOM     49  CB  PHE A   3       5.128  56.458   7.037  0.00  0.00    +0.055 C 
BRANCH  49  50
ATOM     50  CG  PHE A   3       4.398  57.653   6.447  0.00  0.00    -0.020 A 
ATOM     51  CD2 PHE A   3       4.706  58.952   6.865  0.00  0.00    -0.004 A 
ATOM     52  CE2 PHE A   3       4.045  60.066   6.340  0.00  0.00    -0.000 A 
ATOM     53  CZ  PHE A   3       3.043  59.886   5.385  0.00  0.00    -0.000 A 
ATOM     54  CE1 PHE A   3       2.700  58.588   4.960  0.00  0.00    -0.000 A 
ATOM     55  CD1 PHE A   3       3.378  57.469   5.505  0.00  0.00    -0.004 A 
ENDBRANCH  49  50
ENDBRANCH  30  49
ENDBRANCH   1  30
TORSDOF 24
REMARK  Name = ../refined-set-2016/2xc0/2xc0_pocket.pdb
REMARK  226 active torsions:
REMARK  status: ('A' for Active; 'I' for Inactive)
REMARK    1  A    between atoms: _1  and  _5
REMARK    2  A    between atoms: _5  and  _6
REMARK    3  A    between atoms: _5  and  _8
REMARK    4  A    between atoms: _8  and  _9
REMARK    5  A    between atoms: _12  and  _14
REMARK    6  A    between atoms: _14  and  _15
REMARK    7  A    between atoms: _14  and  _17
REMARK    8  A    between atoms: _20  and  _22
REMARK    9  A    between atoms: _22  and  _23
REMARK   10  A    between atoms: _22  and  _25
REMARK   11  A    between atoms: _25  and  _26
REMARK   12  A    between atoms: _26  and  _55
REMARK   13  A    between atoms: _27  and  _29
REMARK   14  A    between atoms: _29  and  _30
REMARK   15  A    between atoms: _32  and  _34
REMARK   16  A    between atoms: _34  and  _35
REMARK   17  A    between atoms: _38  and  _40
REMARK   18  A    between atoms: _40  and  _41
REMARK   19  A    between atoms: _40  and  _43
REMARK   20  A    between atoms: _43  and  _44
REMARK   21  A    between atoms: _49  and  _51
REMARK   22  A    between atoms: _51  and  _52
REMARK   23  A    between atoms: _51  and  _54
REMARK   24  A    between atoms: _54  and  _55
REMARK   25  A    between atoms: _56  and  _58
REMARK   26  A    between atoms: _58  and  _59
REMARK   27  A    between atoms: _58  and  _61
REMARK   28  A    between atoms: _61  and  _62
REMARK   29  A    between atoms: _62  and  _63
REMARK   30  A    between atoms: _68  and  _70
REMARK   31  A    between atoms: _70  and  _71
REMARK   32  A    between atoms: _70  and  _73
REMARK   33  A    between atoms: _73  and  _74
REMARK   34  A    between atoms: _80  and  _82
REMARK   35  A    between atoms: _82  and  _83
REMARK   36  A    between atoms: _82  and  _85
REMARK   37  A    between atoms: _85  and  _86
REMARK   38  A    between atoms: _89  and  _91
REMARK   39  A    between atoms: _91  and  _92
REMARK   40  A    between atoms: _91  and  _94
REMARK   41  A    between atoms: _94  and  _95
REMARK   42  A    between atoms: _95  and  _96
REMARK   43  A    between atoms: _96  and  _97
REMARK   44  A    between atoms: _97  and  _98
REMARK   45  A    between atoms: _102  and  _104
REMARK   46  A    between atoms: _104  and  _105
REMARK   47  A    between atoms: _104  and  _107
REMARK   48  A    between atoms: _107  and  _108
REMARK   49  A    between atoms: _108  and  _109
REMARK   50  A    between atoms: _112  and  _114
REMARK   51  A    between atoms: _114  and  _115
REMARK   52  A    between atoms: _114  and  _117
REMARK   53  A    between atoms: _117  and  _118
REMARK   54  A    between atoms: _121  and  _123
REMARK   55  A    between atoms: _123  and  _124
REMARK   56  A    between atoms: _123  and  _126
REMARK   57  A    between atoms: _126  and  _127
REMARK   58  A    between atoms: _132  and  _133
REMARK   59  A    between atoms: _135  and  _137
REMARK   60  A    between atoms: _137  and  _138
REMARK   61  A    between atoms: _137  and  _140
REMARK   62  A    between atoms: _140  and  _141
REMARK   63  A    between atoms: _144  and  _146
REMARK   64  A    between atoms: _146  and  _147
REMARK   65  A    between atoms: _146  and  _149
REMARK   66  A    between atoms: _149  and  _150
REMARK   67  A    between atoms: _153  and  _155
REMARK   68  A    between atoms: _155  and  _156
REMARK   69  A    between atoms: _155  and  _158
REMARK   70  A    between atoms: _161  and  _163
REMARK   71  A    between atoms: _163  and  _164
REMARK   72  A    between atoms: _163  and  _166
REMARK   73  A    between atoms: _166  and  _167
REMARK   74  A    between atoms: _167  and  _168
REMARK   75  A    between atoms: _168  and  _169
REMARK   76  A    between atoms: _178  and  _180
REMARK   77  A    between atoms: _180  and  _181
REMARK   78  A    between atoms: _180  and  _183
REMARK   79  A    between atoms: _183  and  _184
REMARK   80  A    between atoms: _189  and  _191
REMARK   81  A    between atoms: _191  and  _192
REMARK   82  A    between atoms: _191  and  _194
REMARK   83  A    between atoms: _194  and  _195
REMARK   84  A    between atoms: _195  and  _196
REMARK   85  A    between atoms: _199  and  _201
REMARK   86  A    between atoms: _201  and  _202
REMARK   87  A    between atoms: _201  and  _204
REMARK   88  A    between atoms: _204  and  _205
REMARK   89  A    between atoms: _205  and  _206
REMARK   90  A    between atoms: _206  and  _207
REMARK   91  A    between atoms: _207  and  _208
REMARK   92  A    between atoms: _212  and  _214
REMARK   93  A    between atoms: _214  and  _215
REMARK   94  A    between atoms: _217  and  _219
REMARK   95  A    between atoms: _219  and  _220
REMARK   96  A    between atoms: _219  and  _222
REMARK   97  A    between atoms: _225  and  _227
REMARK   98  A    between atoms: _227  and  _228
REMARK   99  A    between atoms: _227  and  _230
REMARK  100  A    between atoms: _230  and  _231
REMARK  101  A    between atoms: _233  and  _235
REMARK  102  A    between atoms: _235  and  _236
REMARK  103  A    between atoms: _235  and  _238
REMARK  104  A    between atoms: _238  and  _239
REMARK  105  A    between atoms: _241  and  _243
REMARK  106  A    between atoms: _243  and  _244
REMARK  107  A    between atoms: _243  and  _246
REMARK  108  A    between atoms: _246  and  _247
REMARK  109  A    between atoms: _253  and  _255
REMARK  110  A    between atoms: _255  and  _256
REMARK  111  A    between atoms: _255  and  _258
REMARK  112  A    between atoms: _258  and  _259
REMARK  113  A    between atoms: _262  and  _264
REMARK  114  A    between atoms: _264  and  _265
REMARK  115  A    between atoms: _264  and  _267
REMARK  116  A    between atoms: _267  and  _268
REMARK  117  A    between atoms: _271  and  _273
REMARK  118  A    between atoms: _273  and  _274
REMARK  119  A    between atoms: _273  and  _276
REMARK  120  A    between atoms: _276  and  _277
REMARK  121  A    between atoms: _280  and  _282
REMARK  122  A    between atoms: _282  and  _283
REMARK  123  A    between atoms: _282  and  _285
REMARK  124  A    between atoms: _285  and  _286
REMARK  125  A    between atoms: _286  and  _287
REMARK  126  A    between atoms: _289  and  _291
REMARK  127  A    between atoms: _291  and  _292
REMARK  128  A    between atoms: _291  and  _294
REMARK  129  A    between atoms: _294  and  _295
REMARK  130  A    between atoms: _301  and  _303
REMARK  131  A    between atoms: _303  and  _304
REMARK  132  A    between atoms: _303  and  _306
REMARK  133  A    between atoms: _308  and  _310
REMARK  134  A    between atoms: _310  and  _311
REMARK  135  A    between atoms: _314  and  _316
REMARK  136  A    between atoms: _316  and  _317
REMARK  137  A    between atoms: _319  and  _321
REMARK  138  A    between atoms: _321  and  _322
REMARK  139  A    between atoms: _321  and  _324
REMARK  140  A    between atoms: _324  and  _325
REMARK  141  A    between atoms: _328  and  _330
REMARK  142  A    between atoms: _330  and  _331
REMARK  143  A    between atoms: _334  and  _336
REMARK  144  A    between atoms: _336  and  _337
REMARK  145  A    between atoms: _336  and  _339
REMARK  146  A    between atoms: _339  and  _340
REMARK  147  A    between atoms: _340  and  _463
REMARK  148  A    between atoms: _341  and  _343
REMARK  149  A    between atoms: _343  and  _344
REMARK  150  A    between atoms: _343  and  _346
REMARK  151  A    between atoms: _346  and  _347
REMARK  152  A    between atoms: _347  and  _348
REMARK  153  A    between atoms: _353  and  _355
REMARK  154  A    between atoms: _355  and  _356
REMARK  155  A    between atoms: _358  and  _360
REMARK  156  A    between atoms: _360  and  _361
REMARK  157  A    between atoms: _360  and  _363
REMARK  158  A    between atoms: _363  and  _364
REMARK  159  A    between atoms: _367  and  _369
REMARK  160  A    between atoms: _369  and  _370
REMARK  161  A    between atoms: _369  and  _372
REMARK  162  A    between atoms: _372  and  _373
REMARK  163  A    between atoms: _375  and  _377
REMARK  164  A    between atoms: _377  and  _378
REMARK  165  A    between atoms: _380  and  _382
REMARK  166  A    between atoms: _382  and  _383
REMARK  167  A    between atoms: _385  and  _387
REMARK  168  A    between atoms: _387  and  _388
REMARK  169  A    between atoms: _387  and  _390
REMARK  170  A    between atoms: _390  and  _391
REMARK  171  A    between atoms: _396  and  _398
REMARK  172  A    between atoms: _398  and  _399
REMARK  173  A    between atoms: _398  and  _401
REMARK  174  A    between atoms: _401  and  _402
REMARK  175  A    between atoms: _405  and  _407
REMARK  176  A    between atoms: _407  and  _408
REMARK  177  A    between atoms: _407  and  _410
REMARK  178  A    between atoms: _413  and  _415
REMARK  179  A    between atoms: _415  and  _416
REMARK  180  A    between atoms: _415  and  _418
REMARK  181  A    between atoms: _418  and  _419
REMARK  182  A    between atoms: _421  and  _423
REMARK  183  A    between atoms: _423  and  _424
REMARK  184  A    between atoms: _423  and  _426
REMARK  185  A    between atoms: _426  and  _427
REMARK  186  A    between atoms: _437  and  _439
REMARK  187  A    between atoms: _439  and  _440
REMARK  188  A    between atoms: _442  and  _444
REMARK  189  A    between atoms: _444  and  _445
REMARK  190  A    between atoms: _444  and  _447
REMARK  191  A    between atoms: _447  and  _448
REMARK  192  A    between atoms: _448  and  _449
REMARK  193  A    between atoms: _452  and  _454
REMARK  194  A    between atoms: _454  and  _455
REMARK  195  A    between atoms: _457  and  _459
REMARK  196  A    between atoms: _459  and  _460
REMARK  197  A    between atoms: _459  and  _462
REMARK  198  A    between atoms: _462  and  _463
REMARK  199  A    between atoms: _464  and  _466
REMARK  200  A    between atoms: _466  and  _467
REMARK  201  A    between atoms: _470  and  _472
REMARK  202  A    between atoms: _472  and  _473
REMARK  203  A    between atoms: _472  and  _475
REMARK  204  A    between atoms: _475  and  _476
REMARK  205  A    between atoms: _476  and  _477
REMARK  206  A    between atoms: _477  and  _478
REMARK  207  A    between atoms: _487  and  _489
REMARK  208  A    between atoms: _489  and  _490
REMARK  209  A    between atoms: _489  and  _492
REMARK  210  A    between atoms: _492  and  _493
REMARK  211  A    between atoms: _498  and  _499
REMARK  212  A    between atoms: _501  and  _503
REMARK  213  A    between atoms: _503  and  _504
REMARK  214  A    between atoms: _506  and  _508
REMARK  215  A    between atoms: _508  and  _509
REMARK  216  A    between atoms: _508  and  _511
REMARK  217  A    between atoms: _511  and  _512
REMARK  218  A    between atoms: _515  and  _517
REMARK  219  A    between atoms: _517  and  _518
REMARK  220  A    between atoms: _517  and  _520
REMARK  221  A    between atoms: _520  and  _521
REMARK  222  A    between atoms: _526  and  _527
REMARK  223  A    between atoms: _529  and  _531
REMARK  224  A    between atoms: _531  and  _532
REMARK  225  A    between atoms: _531  and  _534
REMARK  226  A    between atoms: _534  and  _535
REMARK                            x       y       z     vdW  Elec       q    Type
REMARK                         _______ _______ _______ _____ _____    ______ ____
ROOT
ATOM      1  C   PHE A   2      16.498  55.208  10.745  0.00  0.00    +0.241 C 
ATOM      2  N   CYS A   3      16.397  55.597  12.019  0.00  0.00    -0.296 N 
ATOM      3  H   CYS A   3      16.588  54.900  12.767  0.00  0.00    +0.150 HD
ATOM      4  O   PHE A   2      16.367  55.966   9.790  0.00  0.00    -0.273 OA
ENDROOT
BRANCH   2   5
ATOM      5  CA  CYS A   3      16.032  56.953  12.411  0.00  0.00    +0.160 C 
BRANCH   5   6
ATOM      6  C   CYS A   3      17.171  57.641  13.108  0.00  0.00    +0.242 C 
ATOM      7  O   CYS A   3      17.973  57.011  13.803  0.00  0.00    -0.273 OA
ATOM      8  N   ALA A   4      17.267  58.945  12.914  0.00  0.00    -0.297 N 
ATOM      9  H   ALA A   4      16.583  59.442  12.308  0.00  0.00    +0.150 HD
BRANCH   8  10
ATOM     10  CA  ALA A   4      18.347  59.673  13.563  0.00  0.00    +0.149 C 
ATOM     11  CB  ALA A   4      19.646  59.580  12.725  0.00  0.00    +0.031 C 
BRANCH  10  12
ATOM     12  C   ALA A   4      17.890  61.096  13.737  0.00  0.00    +0.241 C 
ATOM     13  N   GLY A   5      18.487  61.807  14.675  0.00  0.00    -0.296 N 
ATOM     14  H   GLY A   5      19.199  61.371  15.295  0.00  0.00    +0.150 HD
ATOM     15  O   ALA A   4      16.986  61.547  13.048  0.00  0.00    -0.273 OA
BRANCH  13  16
ATOM     16  CA  GLY A   5      18.137  63.201  14.829  0.00  0.00    +0.163 C 
BRANCH  16  17
ATOM     17  C   GLY A   5      17.553  63.450  16.194  0.00  0.00    +0.229 C 
ATOM     18  O   GLY A   5      17.928  62.790  17.166  0.00  0.00    -0.286 OA
ENDBRANCH  16  17
ENDBRANCH  13  16
ENDBRANCH  10  12
ENDBRANCH   8  10
ENDBRANCH   5   6
BRANCH   5  19
ATOM     19  CB  CYS A   3      14.801  56.932  13.322  0.00  0.00    +0.098 C 
ATOM     20  SG  CYS A   3      13.489  55.927  12.548  0.00  0.00    -0.080 S 
ENDBRANCH   5  19
ENDBRANCH   2   5
BRANCH   1  21
ATOM     21  CA  PHE A   2      16.801  53.734  10.504  0.00  0.00    +0.153 C 
BRANCH  21  24
ATOM     22  C   MET A   1      15.975  52.319   8.730  0.00  0.00    +0.238 C 
ATOM     23  O   MET A   1      15.811  51.353   9.482  0.00  0.00    -0.274 OA
ATOM     24  N   PHE A   2      16.588  53.433   9.103  0.00  0.00    -0.297 N 
ATOM     25  H   PHE A   2      16.921  54.101   8.379  0.00  0.00    +0.150 HD
BRANCH  22  26
ATOM     26  CA  MET A   1      15.423  52.301   7.325  0.00  0.00    +0.146 C 
BRANCH  26  27
ATOM     27  N   MET A   1      15.382  50.920   6.877  0.00  0.00    -0.238 NA
ATOM     28  H   MET A   1      14.905  50.232   7.494  0.00  0.00    +0.142 HD
ENDBRANCH  26  27
BRANCH  26  29
ATOM     29  CB  MET A   1      14.000  52.879   7.395  0.00  0.00    +0.038 C 
BRANCH  29  30
ATOM     30  CG  MET A   1      13.241  52.830   6.064  0.00  0.00    +0.060 C 
BRANCH  30  31
ATOM     31  SD  MET A   1      11.565  53.378   6.241  0.00  0.00    -0.139 S 
ATOM     32  CE  MET A   1      10.861  52.938   4.641  0.00  0.00    +0.069 C 
ENDBRANCH  30  31
ENDBRANCH  29  30
ENDBRANCH  26  29
ENDBRANCH  22  26
ENDBRANCH  21  24
BRANCH  21  33
ATOM     33  CB  PHE A   2      18.219  53.363  10.963  0.00  0.00    +0.055 C 
BRANCH  33  34
ATOM     34  CG  PHE A   2      19.309  54.230  10.369  0.00  0.00    -0.020 A 
ATOM     35  CD2 PHE A   2      19.757  55.376  11.038  0.00  0.00    -0.004 A 
ATOM     36  CE2 PHE A   2      20.761  56.181  10.499  0.00  0.00    -0.000 A 
ATOM     37  CZ  PHE A   2      21.374  55.810   9.294  0.00  0.00    -0.000 A 
ATOM     38  CE1 PHE A   2      20.934  54.675   8.613  0.00  0.00    -0.000 A 
ATOM     39  CD1 PHE A   2      19.908  53.876   9.161  0.00  0.00    -0.004 A 
ENDBRANCH  33  34
ENDBRANCH  21  33
ENDBRANCH   1  21
TORSDOF 16
REMARK  Name = ../refined-set-2016/2xc0/2xc0_pocket.pdb
REMARK  226 active torsions:
REMARK  status: ('A' for Active; 'I' for Inactive)
REMARK    1  A    between atoms: _1  and  _5
REMARK    2  A    between atoms: _5  and  _6
REMARK    3  A    between atoms: _5  and  _8
REMARK    4  A    between atoms: _8  and  _9
REMARK    5  A    between atoms: _12  and  _14
REMARK    6  A    between atoms: _14  and  _15
REMARK    7  A    between atoms: _14  and  _17
REMARK    8  A    between atoms: _20  and  _22
REMARK    9  A    between atoms: _22  and  _23
REMARK   10  A    between atoms: _22  and  _25
REMARK   11  A    between atoms: _25  and  _26
REMARK   12  A    between atoms: _26  and  _55
REMARK   13  A    between atoms: _27  and  _29
REMARK   14  A    between atoms: _29  and  _30
REMARK   15  A    between atoms: _32  and  _34
REMARK   16  A    between atoms: _34  and  _35
REMARK   17  A    between atoms: _38  and  _40
REMARK   18  A    between atoms: _40  and  _41
REMARK   19  A    between atoms: _40  and  _43
REMARK   20  A    between atoms: _43  and  _44
REMARK   21  A    between atoms: _49  and  _51
REMARK   22  A    between atoms: _51  and  _52
REMARK   23  A    between atoms: _51  and  _54
REMARK   24  A    between atoms: _54  and  _55
REMARK   25  A    between atoms: _56  and  _58
REMARK   26  A    between atoms: _58  and  _59
REMARK   27  A    between atoms: _58  and  _61
REMARK   28  A    between atoms: _61  and  _62
REMARK   29  A    between atoms: _62  and  _63
REMARK   30  A    between atoms: _68  and  _70
REMARK   31  A    between atoms: _70  and  _71
REMARK   32  A    between atoms: _70  and  _73
REMARK   33  A    between atoms: _73  and  _74
REMARK   34  A    between atoms: _80  and  _82
REMARK   35  A    between atoms: _82  and  _83
REMARK   36  A    between atoms: _82  and  _85
REMARK   37  A    between atoms: _85  and  _86
REMARK   38  A    between atoms: _89  and  _91
REMARK   39  A    between atoms: _91  and  _92
REMARK   40  A    between atoms: _91  and  _94
REMARK   41  A    between atoms: _94  and  _95
REMARK   42  A    between atoms: _95  and  _96
REMARK   43  A    between atoms: _96  and  _97
REMARK   44  A    between atoms: _97  and  _98
REMARK   45  A    between atoms: _102  and  _104
REMARK   46  A    between atoms: _104  and  _105
REMARK   47  A    between atoms: _104  and  _107
REMARK   48  A    between atoms: _107  and  _108
REMARK   49  A    between atoms: _108  and  _109
REMARK   50  A    between atoms: _112  and  _114
REMARK   51  A    between atoms: _114  and  _115
REMARK   52  A    between atoms: _114  and  _117
REMARK   53  A    between atoms: _117  and  _118
REMARK   54  A    between atoms: _121  and  _123
REMARK   55  A    between atoms: _123  and  _124
REMARK   56  A    between atoms: _123  and  _126
REMARK   57  A    between atoms: _126  and  _127
REMARK   58  A    between atoms: _132  and  _133
REMARK   59  A    between atoms: _135  and  _137
REMARK   60  A    between atoms: _137  and  _138
REMARK   61  A    between atoms: _137  and  _140
REMARK   62  A    between atoms: _140  and  _141
REMARK   63  A    between atoms: _144  and  _146
REMARK   64  A    between atoms: _146  and  _147
REMARK   65  A    between atoms: _146  and  _149
REMARK   66  A    between atoms: _149  and  _150
REMARK   67  A    between atoms: _153  and  _155
REMARK   68  A    between atoms: _155  and  _156
REMARK   69  A    between atoms: _155  and  _158
REMARK   70  A    between atoms: _161  and  _163
REMARK   71  A    between atoms: _163  and  _164
REMARK   72  A    between atoms: _163  and  _166
REMARK   73  A    between atoms: _166  and  _167
REMARK   74  A    between atoms: _167  and  _168
REMARK   75  A    between atoms: _168  and  _169
REMARK   76  A    between atoms: _178  and  _180
REMARK   77  A    between atoms: _180  and  _181
REMARK   78  A    between atoms: _180  and  _183
REMARK   79  A    between atoms: _183  and  _184
REMARK   80  A    between atoms: _189  and  _191
REMARK   81  A    between atoms: _191  and  _192
REMARK   82  A    between atoms: _191  and  _194
REMARK   83  A    between atoms: _194  and  _195
REMARK   84  A    between atoms: _195  and  _196
REMARK   85  A    between atoms: _199  and  _201
REMARK   86  A    between atoms: _201  and  _202
REMARK   87  A    between atoms: _201  and  _204
REMARK   88  A    between atoms: _204  and  _205
REMARK   89  A    between atoms: _205  and  _206
REMARK   90  A    between atoms: _206  and  _207
REMARK   91  A    between atoms: _207  and  _208
REMARK   92  A    between atoms: _212  and  _214
REMARK   93  A    between atoms: _214  and  _215
REMARK   94  A    between atoms: _217  and  _219
REMARK   95  A    between atoms: _219  and  _220
REMARK   96  A    between atoms: _219  and  _222
REMARK   97  A    between atoms: _225  and  _227
REMARK   98  A    between atoms: _227  and  _228
REMARK   99  A    between atoms: _227  and  _230
REMARK  100  A    between atoms: _230  and  _231
REMARK  101  A    between atoms: _233  and  _235
REMARK  102  A    between atoms: _235  and  _236
REMARK  103  A    between atoms: _235  and  _238
REMARK  104  A    between atoms: _238  and  _239
REMARK  105  A    between atoms: _241  and  _243
REMARK  106  A    between atoms: _243  and  _244
REMARK  107  A    between atoms: _243  and  _246
REMARK  108  A    between atoms: _246  and  _247
REMARK  109  A    between atoms: _253  and  _255
REMARK  110  A    between atoms: _255  and  _256
REMARK  111  A    between atoms: _255  and  _258
REMARK  112  A    between atoms: _258  and  _259
REMARK  113  A    between atoms: _262  and  _264
REMARK  114  A    between atoms: _264  and  _265
REMARK  115  A    between atoms: _264  and  _267
REMARK  116  A    between atoms: _267  and  _268
REMARK  117  A    between atoms: _271  and  _273
REMARK  118  A    between atoms: _273  and  _274
REMARK  119  A    between atoms: _273  and  _276
REMARK  120  A    between atoms: _276  and  _277
REMARK  121  A    between atoms: _280  and  _282
REMARK  122  A    between atoms: _282  and  _283
REMARK  123  A    between atoms: _282  and  _285
REMARK  124  A    between atoms: _285  and  _286
REMARK  125  A    between atoms: _286  and  _287
REMARK  126  A    between atoms: _289  and  _291
REMARK  127  A    between atoms: _291  and  _292
REMARK  128  A    between atoms: _291  and  _294
REMARK  129  A    between atoms: _294  and  _295
REMARK  130  A    between atoms: _301  and  _303
REMARK  131  A    between atoms: _303  and  _304
REMARK  132  A    between atoms: _303  and  _306
REMARK  133  A    between atoms: _308  and  _310
REMARK  134  A    between atoms: _310  and  _311
REMARK  135  A    between atoms: _314  and  _316
REMARK  136  A    between atoms: _316  and  _317
REMARK  137  A    between atoms: _319  and  _321
REMARK  138  A    between atoms: _321  and  _322
REMARK  139  A    between atoms: _321  and  _324
REMARK  140  A    between atoms: _324  and  _325
REMARK  141  A    between atoms: _328  and  _330
REMARK  142  A    between atoms: _330  and  _331
REMARK  143  A    between atoms: _334  and  _336
REMARK  144  A    between atoms: _336  and  _337
REMARK  145  A    between atoms: _336  and  _339
REMARK  146  A    between atoms: _339  and  _340
REMARK  147  A    between atoms: _340  and  _463
REMARK  148  A    between atoms: _341  and  _343
REMARK  149  A    between atoms: _343  and  _344
REMARK  150  A    between atoms: _343  and  _346
REMARK  151  A    between atoms: _346  and  _347
REMARK  152  A    between atoms: _347  and  _348
REMARK  153  A    between atoms: _353  and  _355
REMARK  154  A    between atoms: _355  and  _356
REMARK  155  A    between atoms: _358  and  _360
REMARK  156  A    between atoms: _360  and  _361
REMARK  157  A    between atoms: _360  and  _363
REMARK  158  A    between atoms: _363  and  _364
REMARK  159  A    between atoms: _367  and  _369
REMARK  160  A    between atoms: _369  and  _370
REMARK  161  A    between atoms: _369  and  _372
REMARK  162  A    between atoms: _372  and  _373
REMARK  163  A    between atoms: _375  and  _377
REMARK  164  A    between atoms: _377  and  _378
REMARK  165  A    between atoms: _380  and  _382
REMARK  166  A    between atoms: _382  and  _383
REMARK  167  A    between atoms: _385  and  _387
REMARK  168  A    between atoms: _387  and  _388
REMARK  169  A    between atoms: _387  and  _390
REMARK  170  A    between atoms: _390  and  _391
REMARK  171  A    between atoms: _396  and  _398
REMARK  172  A    between atoms: _398  and  _399
REMARK  173  A    between atoms: _398  and  _401
REMARK  174  A    between atoms: _401  and  _402
REMARK  175  A    between atoms: _405  and  _407
REMARK  176  A    between atoms: _407  and  _408
REMARK  177  A    between atoms: _407  and  _410
REMARK  178  A    between atoms: _413  and  _415
REMARK  179  A    between atoms: _415  and  _416
REMARK  180  A    between atoms: _415  and  _418
REMARK  181  A    between atoms: _418  and  _419
REMARK  182  A    between atoms: _421  and  _423
REMARK  183  A    between atoms: _423  and  _424
REMARK  184  A    between atoms: _423  and  _426
REMARK  185  A    between atoms: _426  and  _427
REMARK  186  A    between atoms: _437  and  _439
REMARK  187  A    between atoms: _439  and  _440
REMARK  188  A    between atoms: _442  and  _444
REMARK  189  A    between atoms: _444  and  _445
REMARK  190  A    between atoms: _444  and  _447
REMARK  191  A    between atoms: _447  and  _448
REMARK  192  A    between atoms: _448  and  _449
REMARK  193  A    between atoms: _452  and  _454
REMARK  194  A    between atoms: _454  and  _455
REMARK  195  A    between atoms: _457  and  _459
REMARK  196  A    between atoms: _459  and  _460
REMARK  197  A    between atoms: _459  and  _462
REMARK  198  A    between atoms: _462  and  _463
REMARK  199  A    between atoms: _464  and  _466
REMARK  200  A    between atoms: _466  and  _467
REMARK  201  A    between atoms: _470  and  _472
REMARK  202  A    between atoms: _472  and  _473
REMARK  203  A    between atoms: _472  and  _475
REMARK  204  A    between atoms: _475  and  _476
REMARK  205  A    between atoms: _476  and  _477
REMARK  206  A    between atoms: _477  and  _478
REMARK  207  A    between atoms: _487  and  _489
REMARK  208  A    between atoms: _489  and  _490
REMARK  209  A    between atoms: _489  and  _492
REMARK  210  A    between atoms: _492  and  _493
REMARK  211  A    between atoms: _498  and  _499
REMARK  212  A    between atoms: _501  and  _503
REMARK  213  A    between atoms: _503  and  _504
REMARK  214  A    between atoms: _506  and  _508
REMARK  215  A    between atoms: _508  and  _509
REMARK  216  A    between atoms: _508  and  _511
REMARK  217  A    between atoms: _511  and  _512
REMARK  218  A    between atoms: _515  and  _517
REMARK  219  A    between atoms: _517  and  _518
REMARK  220  A    between atoms: _517  and  _520
REMARK  221  A    between atoms: _520  and  _521
REMARK  222  A    between atoms: _526  and  _527
REMARK  223  A    between atoms: _529  and  _531
REMARK  224  A    between atoms: _531  and  _532
REMARK  225  A    between atoms: _531  and  _534
REMARK  226  A    between atoms: _534  and  _535
REMARK                            x       y       z     vdW  Elec       q    Type
REMARK                         _______ _______ _______ _____ _____    ______ ____
ROOT
ATOM      1  CA  GLY A   8      11.791  69.064   8.844  0.00  0.00    +0.160 C 
ENDROOT
BRANCH   1   2
ATOM      2  N   GLY A   8      10.366  69.019   8.560  0.00  0.00    -0.296 N 
ATOM      3  H   GLY A   8       9.757  69.790   8.900  0.00  0.00    +0.150 HD
ATOM      4  C   SER A   7       9.825  68.022   7.880  0.00  0.00    +0.243 C 
ATOM      5  O   SER A   7      10.505  67.128   7.362  0.00  0.00    -0.273 OA
BRANCH   4   6
ATOM      6  CA  SER A   7       8.312  68.036   7.767  0.00  0.00    +0.176 C 
BRANCH   6   7
ATOM      7  N   SER A   7       7.730  66.701   7.666  0.00  0.00    -0.295 N 
ATOM      8  C   ASP A   6       7.830  65.783   8.630  0.00  0.00    +0.241 C 
ATOM      9  O   ASP A   6       8.190  66.018   9.783  0.00  0.00    -0.273 OA
ATOM     10  H   SER A   7       7.211  66.453   6.799  0.00  0.00    +0.150 HD
BRANCH   8  11
ATOM     11  CA  ASP A   6       7.488  64.380   8.207  0.00  0.00    +0.149 C 
BRANCH  11  12
ATOM     12  N   ASP A   6       8.719  63.584   8.149  0.00  0.00    -0.297 N 
ATOM     13  H   ASP A   6       8.968  62.978   8.957  0.00  0.00    +0.150 HD
ATOM     14  C   GLY A   5       9.525  63.615   7.094  0.00  0.00    +0.243 C 
ATOM     15  O   GLY A   5       9.253  64.203   6.048  0.00  0.00    -0.273 OA
BRANCH  14  16
ATOM     16  CA  GLY A   5      10.845  62.889   7.236  0.00  0.00    +0.176 C 
BRANCH  16  17
ATOM     17  N   GLY A   5      11.373  62.590   5.929  0.00  0.00    -0.295 N 
ATOM     18  C   GLN A   4      12.355  61.712   5.752  0.00  0.00    +0.241 C 
ATOM     19  O   GLN A   4      13.034  61.242   6.674  0.00  0.00    -0.273 OA
ATOM     20  H   GLY A   5      10.974  63.075   5.100  0.00  0.00    +0.150 HD
BRANCH  18  21
ATOM     21  CA  GLN A   4      12.642  61.341   4.312  0.00  0.00    +0.153 C 
BRANCH  21  22
ATOM     22  N   GLN A   4      13.894  60.591   4.151  0.00  0.00    -0.297 N 
ATOM     23  H   GLN A   4      14.357  60.162   4.978  0.00  0.00    +0.150 HD
ATOM     24  C   SER A   3      14.433  60.463   2.939  0.00  0.00    +0.243 C 
ATOM     25  O   SER A   3      13.988  61.057   1.969  0.00  0.00    -0.273 OA
BRANCH  24  26
ATOM     26  CA  SER A   3      15.660  59.569   2.780  0.00  0.00    +0.178 C 
BRANCH  26  27
ATOM     27  N   SER A   3      16.821  60.123   3.476  0.00  0.00    -0.295 N 
ATOM     28  H   SER A   3      16.796  60.244   4.509  0.00  0.00    +0.150 HD
ATOM     29  C   VAL A   2      17.911  60.473   2.792  0.00  0.00    +0.241 C 
ATOM     30  O   VAL A   2      17.951  60.509   1.560  0.00  0.00    -0.273 OA
BRANCH  29  31
ATOM     31  CA  VAL A   2      19.171  60.810   3.622  0.00  0.00    +0.148 C 
BRANCH  31  32
ATOM     32  N   VAL A   2      20.235  59.876   3.234  0.00  0.00    -0.297 N 
ATOM     33  C   ILE A   1      20.085  58.553   3.254  0.00  0.00    +0.238 C 
ATOM     34  O   ILE A   1      19.094  57.990   3.739  0.00  0.00    -0.274 OA
ATOM     35  H   VAL A   2      21.150  60.266   2.929  0.00  0.00    +0.150 HD
BRANCH  33  36
ATOM     36  CA  ILE A   1      21.237  57.726   2.699  0.00  0.00    +0.145 C 
BRANCH  36  37
ATOM     37  N   ILE A   1      21.551  56.831   3.815  0.00  0.00    -0.238 NA
ATOM     38  H   ILE A   1      20.801  56.210   4.181  0.00  0.00    +0.142 HD
ENDBRANCH  36  37
BRANCH  36  39
ATOM     39  CB  ILE A   1      20.782  56.929   1.426  0.00  0.00    +0.025 C 
ATOM     40  CG2 ILE A   1      20.367  57.885   0.261  0.00  0.00    +0.002 C 
BRANCH  39  41
ATOM     41  CG1 ILE A   1      21.861  55.917   0.993  0.00  0.00    +0.002 C 
ATOM     42  CD1 ILE A   1      21.332  54.872  -0.017  0.00  0.00    +0.000 C 
ENDBRANCH  39  41
ENDBRANCH  36  39
ENDBRANCH  33  36
ENDBRANCH  31  32
BRANCH  31  43
ATOM     43  CB  VAL A   2      19.604  62.271   3.392  0.00  0.00    +0.027 C 
ATOM     44  CG2 VAL A   2      20.904  62.529   4.125  0.00  0.00    +0.002 C 
ATOM     45  CG1 VAL A   2      18.536  63.242   3.908  0.00  0.00    +0.002 C 
ENDBRANCH  31  43
ENDBRANCH  29  31
ENDBRANCH  26  27
BRANCH  26  46
ATOM     46  CB  SER A   3      15.390  58.123   3.218  0.00  0.00    +0.166 C 
BRANCH  46  47
ATOM     47  OG  SER A   3      14.476  57.472   2.331  0.00  0.00    -0.380 OA
ATOM     48  H   SER A   3      14.323  56.544   2.640  0.00  0.00    +0.211 HD
ENDBRANCH  46  47
ENDBRANCH  26  46
ENDBRANCH  24  26
ENDBRANCH  21  22
BRANCH  21  49
ATOM     49  CB  GLN A   4      11.444  60.540   3.749  0.00  0.00    +0.057 C 
BRANCH  49  50
ATOM     50  CG  GLN A   4      11.175  59.215   4.408  0.00  0.00    -0.002 A 
ATOM     51  CD2 GLN A   4      10.260  58.957   5.485  0.00  0.00    +0.013 A 
ATOM     52  CE3 GLN A   4       9.429  59.779   6.285  0.00  0.00    +0.001 A 
ATOM     53  CZ3 GLN A   4       8.658  59.181   7.286  0.00  0.00    +0.000 A 
ATOM     54  CH2 GLN A   4       8.722  57.793   7.513  0.00  0.00    +0.001 A 
ATOM     55  CZ2 GLN A   4       9.551  56.972   6.774  0.00  0.00    +0.017 A 
ATOM     56  CE2 GLN A   4      10.315  57.570   5.755  0.00  0.00    +0.056 A 
ATOM     57  NE1 GLN A   4      11.194  57.006   4.863  0.00  0.00    -0.352 N 
ATOM     58  HE1 GLN A   4      11.430  55.995   4.806  0.00  0.00    +0.166 HD
ATOM     59  CD1 GLN A   4      11.712  57.995   4.057  0.00  0.00    +0.068 A 
ENDBRANCH  49  50
ENDBRANCH  21  49
ENDBRANCH  18  21
ENDBRANCH  16  17
ENDBRANCH  14  16
ENDBRANCH  11  12
BRANCH  11  60
ATOM     60  CB  ASP A   6       6.491  63.756   9.157  0.00  0.00    +0.041 C 
BRANCH  60  61
ATOM     61  CG  ASP A   6       6.112  62.367   8.716  0.00  0.00    +0.116 C 
BRANCH  61  62
ATOM     62  CD  ASP A   6       5.132  61.745   9.650  0.00  0.00    +0.365 C 
ATOM     63  OE2 ASP A   6       5.470  60.719  10.282  0.00  0.00    -0.246 OA
ATOM     64  OE1 ASP A   6       4.012  62.282   9.745  0.00  0.00    -0.246 OA
ENDBRANCH  61  62
ENDBRANCH  60  61
ENDBRANCH  11  60
ENDBRANCH   8  11
ENDBRANCH   6   7
ENDBRANCH   4   6
ENDBRANCH   1   2
BRANCH   1  65
ATOM     65  C   GLY A   8      11.935  69.632  10.231  0.00  0.00    +0.242 C 
ATOM     66  N   GLY A   9      12.806  69.023  11.030  0.00  0.00    -0.297 N 
ATOM     67  H   GLY A   9      13.367  68.241  10.635  0.00  0.00    +0.150 HD
ATOM     68  O   GLY A   8      11.245  70.596  10.571  0.00  0.00    -0.273 OA
BRANCH  66  69
ATOM     69  CA  GLY A   9      13.024  69.387  12.437  0.00  0.00    +0.149 C 
ATOM     70  CB  GLY A   9      13.907  70.661  12.559  0.00  0.00    +0.031 C 
BRANCH  69  71
ATOM     71  C   GLY A   9      11.737  69.519  13.268  0.00  0.00    +0.241 C 
ATOM     72  O   GLY A   9      11.723  70.251  14.270  0.00  0.00    -0.273 OA
ATOM     73  N   ARG A  10      10.687  68.781  12.879  0.00  0.00    -0.298 N 
ATOM     74  H   ARG A  10      10.786  68.170  12.043  0.00  0.00    +0.150 HD
BRANCH  73  75
ATOM     75  CA  ARG A  10       9.403  68.804  13.591  0.00  0.00    +0.137 C 
BRANCH  75  76
ATOM     76  C   ARG A  10       9.498  68.161  14.963  0.00  0.00    +0.227 C 
ATOM     77  O   ARG A  10      10.176  67.126  15.131  0.00  0.00    -0.286 OA
ENDBRANCH  75  76
BRANCH  75  78
ATOM     78  CB  ARG A  10       8.285  68.137  12.782  0.00  0.00    +0.031 C 
BRANCH  78  79
ATOM     79  CG  ARG A  10       7.707  69.034  11.725  0.00  0.00    +0.045 C 
BRANCH  79  80
ATOM     80  CD  ARG A  10       6.328  68.601  11.294  0.00  0.00    +0.174 C 
BRANCH  80  81
ATOM     81  NE  ARG A  10       6.011  69.245  10.023  0.00  0.00    -0.265 N 
ATOM     82  HE  ARG A  10       6.607  70.044   9.727  0.00  0.00    +0.259 HD
ATOM     83  CZ  ARG A  10       5.022  68.887   9.220  0.00  0.00    +0.342 C 
ATOM     84  NH2 ARG A  10       4.209  67.902   9.553  0.00  0.00    -0.292 N 
ATOM     85 HH21 ARG A  10       4.343  67.399  10.454  0.00  0.00    +0.255 HD
ATOM     86 HH22 ARG A  10       3.435  67.628   8.915  0.00  0.00    +0.255 HD
ATOM     87  NH1 ARG A  10       4.846  69.525   8.072  0.00  0.00    -0.292 N 
ATOM     88 HH11 ARG A  10       5.483  70.303   7.806  0.00  0.00    +0.255 HD
ATOM     89 HH12 ARG A  10       4.070  69.248   7.437  0.00  0.00    +0.255 HD
ENDBRANCH  80  81
ENDBRANCH  79  80
ENDBRANCH  78  79
ENDBRANCH  75  78
ENDBRANCH  73  75
ENDBRANCH  69  71
ENDBRANCH  66  69
ENDBRANCH   1  65
BRANCH   1  90
ATOM     90  CB  GLY A   8      12.523  69.964   7.824  0.00  0.00    +0.098 C 
BRANCH  90  91
ATOM     91  SG  GLY A   8      12.414  69.356   6.135  0.00  0.00    -0.080 S 
BRANCH  91  92
ATOM     92  SG  SER A   3      13.671  70.593   5.126  0.00  0.00    -0.080 S 
BRANCH  92  93
ATOM     93  CB  SER A   3      15.337  69.984   5.470  0.00  0.00    +0.098 C 
BRANCH  93  94
ATOM     94  CA  SER A   3      15.550  68.494   5.119  0.00  0.00    +0.160 C 
BRANCH  94  95
ATOM     95  C   SER A   3      15.517  68.191   3.625  0.00  0.00    +0.242 C 
ATOM     96  O   SER A   3      16.494  67.645   3.088  0.00  0.00    -0.273 OA
ATOM     97  N   GLN A   4      14.406  68.516   2.957  0.00  0.00    -0.297 N 
ATOM     98  H   GLN A   4      13.588  68.878   3.488  0.00  0.00    +0.150 HD
BRANCH  97  99
ATOM     99  CA  GLN A   4      14.302  68.379   1.497  0.00  0.00    +0.149 C 
BRANCH  99 100
ATOM    100  C   GLN A   4      15.481  69.058   0.804  0.00  0.00    +0.241 C 
ATOM    101  O   GLN A   4      15.923  70.122   1.230  0.00  0.00    -0.273 OA
ATOM    102  N   GLY A   5      16.000  68.419  -0.240  0.00  0.00    -0.295 N 
ATOM    103  H   GLY A   5      15.504  67.592  -0.628  0.00  0.00    +0.150 HD
BRANCH 102 104
ATOM    104  CA  GLY A   5      17.255  68.855  -0.855  0.00  0.00    +0.176 C 
BRANCH 104 105
ATOM    105  C   GLY A   5      18.491  68.129  -0.340  0.00  0.00    +0.243 C 
ATOM    106  N   ASP A   6      18.467  67.690   0.919  0.00  0.00    -0.296 N 
ATOM    107  H   ASP A   6      17.669  67.953   1.531  0.00  0.00    +0.150 HD
ATOM    108  O   GLY A   5      19.463  67.989  -1.070  0.00  0.00    -0.273 OA
BRANCH 106 109
ATOM    109  CA  ASP A   6      19.542  66.842   1.466  0.00  0.00    +0.160 C 
BRANCH 109 110
ATOM    110  C   ASP A   6      19.342  65.387   1.081  0.00  0.00    +0.241 C 
ATOM    111  O   ASP A   6      20.295  64.603   1.128  0.00  0.00    -0.273 OA
ATOM    112  N   SER A   7      18.095  65.039   0.742  0.00  0.00    -0.295 N 
ATOM    113  H   SER A   7      17.357  65.770   0.795  0.00  0.00    +0.150 HD
BRANCH 112 114
ATOM    114  CA  SER A   7      17.697  63.701   0.302  0.00  0.00    +0.178 C 
BRANCH 114 115
ATOM    115  C   SER A   7      18.712  63.124  -0.675  0.00  0.00    +0.243 C 
ATOM    116  N   GLY A   8      19.087  61.872  -0.459  0.00  0.00    -0.295 N 
ATOM    117  H   GLY A   8      18.702  61.361   0.361  0.00  0.00    +0.150 HD
ATOM    118  O   SER A   7      19.146  63.806  -1.608  0.00  0.00    -0.273 OA
BRANCH 116 119
ATOM    119  CA  GLY A   8      20.038  61.185  -1.353  0.00  0.00    +0.176 C 
BRANCH 119 120
ATOM    120  C   GLY A   8      21.468  61.324  -0.874  0.00  0.00    +0.243 C 
ATOM    121  N   GLY A   9      21.683  62.269   0.037  0.00  0.00    -0.296 N 
ATOM    122  H   GLY A   9      20.871  62.812   0.394  0.00  0.00    +0.150 HD
ATOM    123  O   GLY A   8      22.357  60.611  -1.341  0.00  0.00    -0.273 OA
BRANCH 121 124
ATOM    124  CA  GLY A   9      22.994  62.572   0.550  0.00  0.00    +0.163 C 
BRANCH 124 125
ATOM    125  C   GLY A   9      23.515  61.623   1.602  0.00  0.00    +0.229 C 
ATOM    126  O   GLY A   9      22.843  60.649   1.980  0.00  0.00    -0.286 OA
ENDBRANCH 124 125
ENDBRANCH 121 124
ENDBRANCH 119 120
ENDBRANCH 116 119
ENDBRANCH 114 115
BRANCH 114 127
ATOM    127  CB  SER A   7      16.343  63.779  -0.409  0.00  0.00    +0.166 C 
BRANCH 127 128
ATOM    128  OG  SER A   7      15.586  64.878   0.058  0.00  0.00    -0.380 OA
ATOM    129  H   SER A   7      14.718  64.905  -0.417  0.00  0.00    +0.211 HD
ENDBRANCH 127 128
ENDBRANCH 114 127
ENDBRANCH 112 114
ENDBRANCH 109 110
BRANCH 109 130
ATOM    130  CB  ASP A   6      19.629  66.908   2.996  0.00  0.00    +0.143 C 
BRANCH 130 131
ATOM    131  CG  ASP A   6      19.919  68.306   3.516  0.00  0.00    +0.367 C 
ATOM    132  OD2 ASP A   6      19.193  68.753   4.445  0.00  0.00    -0.246 OA
ATOM    133  OD1 ASP A   6      20.875  68.942   3.012  0.00  0.00    -0.246 OA
ENDBRANCH 130 131
ENDBRANCH 109 130
ENDBRANCH 106 109
ENDBRANCH 104 105
ENDBRANCH 102 104
ENDBRANCH  99 100
BRANCH  99 134
ATOM    134  CB  GLN A   4      13.004  68.986   0.978  0.00  0.00    +0.039 C 
BRANCH 134 135
ATOM    135  CG  GLN A   4      12.518  68.358  -0.330  0.00  0.00    +0.087 C 
BRANCH 135 136
ATOM    136  CD  GLN A   4      11.191  68.939  -0.781  0.00  0.00    +0.219 C 
ATOM    137  NE2 GLN A   4      11.113  70.266  -0.830  0.00  0.00    -0.329 N 
ATOM    138 HE21 GLN A   4      11.939  70.845  -0.578  0.00  0.00    +0.145 HD
ATOM    139 HE22 GLN A   4      10.226  70.724  -1.120  0.00  0.00    +0.145 HD
ATOM    140  OE1 GLN A   4      10.242  68.206  -1.069  0.00  0.00    -0.275 OA
ENDBRANCH 135 136
ENDBRANCH 134 135
ENDBRANCH  99 134
ENDBRANCH  97  99
ENDBRANCH  94  95
BRANCH  94 143
ATOM    141  C   VAL A   2      16.844  67.575   6.904  0.00  0.00    +0.241 C 
ATOM    142  O   VAL A   2      15.842  67.547   7.625  0.00  0.00    -0.273 OA
ATOM    143  N   SER A   3      16.810  68.044   5.671  0.00  0.00    -0.296 N 
ATOM    144  H   SER A   3      17.679  68.090   5.102  0.00  0.00    +0.150 HD
BRANCH 141 145
ATOM    145  CA  VAL A   2      18.199  67.100   7.414  0.00  0.00    +0.149 C 
ATOM    146  CB  VAL A   2      18.586  65.786   6.762  0.00  0.00    +0.031 C 
BRANCH 145 149
ATOM    147  C   ILE A   1      18.000  68.008   9.640  0.00  0.00    +0.239 C 
ATOM    148  O   ILE A   1      18.350  69.132   9.289  0.00  0.00    -0.274 OA
ATOM    149  N   VAL A   2      18.071  66.949   8.847  0.00  0.00    -0.297 N 
ATOM    150  H   VAL A   2      18.034  65.996   9.261  0.00  0.00    +0.150 HD
BRANCH 147 151
ATOM    151  CA  ILE A   1      17.474  67.772  11.038  0.00  0.00    +0.156 C 
BRANCH 151 152
ATOM    152  N   ILE A   1      17.894  68.924  11.859  0.00  0.00    -0.238 NA
ATOM    153  H   ILE A   1      18.345  69.738  11.394  0.00  0.00    +0.142 HD
ENDBRANCH 151 152
BRANCH 151 154
ATOM    154  CB  ILE A   1      15.932  67.721  11.013  0.00  0.00    +0.140 C 
BRANCH 154 155
ATOM    155  CG  ILE A   1      15.363  66.390  10.500  0.00  0.00    +0.367 C 
ATOM    156  OD2 ILE A   1      14.118  66.328  10.348  0.00  0.00    -0.246 OA
ATOM    157  OD1 ILE A   1      16.125  65.430  10.230  0.00  0.00    -0.246 OA
ENDBRANCH 154 155
ENDBRANCH 151 154
ENDBRANCH 147 151
ENDBRANCH 145 149
ENDBRANCH 141 145
ENDBRANCH  94 143
ENDBRANCH  93  94
ENDBRANCH  92  93
ENDBRANCH  91  92
ENDBRANCH  90  91
ENDBRANCH   1  90
TORSDOF 66
REMARK  Name = ../refined-set-2016/2xc0/2xc0_pocket.pdb
REMARK  226 active torsions:
REMARK  status: ('A' for Active; 'I' for Inactive)
REMARK    1  A    between atoms: _1  and  _5
REMARK    2  A    between atoms: _5  and  _6
REMARK    3  A    between atoms: _5  and  _8
REMARK    4  A    between atoms: _8  and  _9
REMARK    5  A    between atoms: _12  and  _14
REMARK    6  A    between atoms: _14  and  _15
REMARK    7  A    between atoms: _14  and  _17
REMARK    8  A    between atoms: _20  and  _22
REMARK    9  A    between atoms: _22  and  _23
REMARK   10  A    between atoms: _22  and  _25
REMARK   11  A    between atoms: _25  and  _26
REMARK   12  A    between atoms: _26  and  _55
REMARK   13  A    between atoms: _27  and  _29
REMARK   14  A    between atoms: _29  and  _30
REMARK   15  A    between atoms: _32  and  _34
REMARK   16  A    between atoms: _34  and  _35
REMARK   17  A    between atoms: _38  and  _40
REMARK   18  A    between atoms: _40  and  _41
REMARK   19  A    between atoms: _40  and  _43
REMARK   20  A    between atoms: _43  and  _44
REMARK   21  A    between atoms: _49  and  _51
REMARK   22  A    between atoms: _51  and  _52
REMARK   23  A    between atoms: _51  and  _54
REMARK   24  A    between atoms: _54  and  _55
REMARK   25  A    between atoms: _56  and  _58
REMARK   26  A    between atoms: _58  and  _59
REMARK   27  A    between atoms: _58  and  _61
REMARK   28  A    between atoms: _61  and  _62
REMARK   29  A    between atoms: _62  and  _63
REMARK   30  A    between atoms: _68  and  _70
REMARK   31  A    between atoms: _70  and  _71
REMARK   32  A    between atoms: _70  and  _73
REMARK   33  A    between atoms: _73  and  _74
REMARK   34  A    between atoms: _80  and  _82
REMARK   35  A    between atoms: _82  and  _83
REMARK   36  A    between atoms: _82  and  _85
REMARK   37  A    between atoms: _85  and  _86
REMARK   38  A    between atoms: _89  and  _91
REMARK   39  A    between atoms: _91  and  _92
REMARK   40  A    between atoms: _91  and  _94
REMARK   41  A    between atoms: _94  and  _95
REMARK   42  A    between atoms: _95  and  _96
REMARK   43  A    between atoms: _96  and  _97
REMARK   44  A    between atoms: _97  and  _98
REMARK   45  A    between atoms: _102  and  _104
REMARK   46  A    between atoms: _104  and  _105
REMARK   47  A    between atoms: _104  and  _107
REMARK   48  A    between atoms: _107  and  _108
REMARK   49  A    between atoms: _108  and  _109
REMARK   50  A    between atoms: _112  and  _114
REMARK   51  A    between atoms: _114  and  _115
REMARK   52  A    between atoms: _114  and  _117
REMARK   53  A    between atoms: _117  and  _118
REMARK   54  A    between atoms: _121  and  _123
REMARK   55  A    between atoms: _123  and  _124
REMARK   56  A    between atoms: _123  and  _126
REMARK   57  A    between atoms: _126  and  _127
REMARK   58  A    between atoms: _132  and  _133
REMARK   59  A    between atoms: _135  and  _137
REMARK   60  A    between atoms: _137  and  _138
REMARK   61  A    between atoms: _137  and  _140
REMARK   62  A    between atoms: _140  and  _141
REMARK   63  A    between atoms: _144  and  _146
REMARK   64  A    between atoms: _146  and  _147
REMARK   65  A    between atoms: _146  and  _149
REMARK   66  A    between atoms: _149  and  _150
REMARK   67  A    between atoms: _153  and  _155
REMARK   68  A    between atoms: _155  and  _156
REMARK   69  A    between atoms: _155  and  _158
REMARK   70  A    between atoms: _161  and  _163
REMARK   71  A    between atoms: _163  and  _164
REMARK   72  A    between atoms: _163  and  _166
REMARK   73  A    between atoms: _166  and  _167
REMARK   74  A    between atoms: _167  and  _168
REMARK   75  A    between atoms: _168  and  _169
REMARK   76  A    between atoms: _178  and  _180
REMARK   77  A    between atoms: _180  and  _181
REMARK   78  A    between atoms: _180  and  _183
REMARK   79  A    between atoms: _183  and  _184
REMARK   80  A    between atoms: _189  and  _191
REMARK   81  A    between atoms: _191  and  _192
REMARK   82  A    between atoms: _191  and  _194
REMARK   83  A    between atoms: _194  and  _195
REMARK   84  A    between atoms: _195  and  _196
REMARK   85  A    between atoms: _199  and  _201
REMARK   86  A    between atoms: _201  and  _202
REMARK   87  A    between atoms: _201  and  _204
REMARK   88  A    between atoms: _204  and  _205
REMARK   89  A    between atoms: _205  and  _206
REMARK   90  A    between atoms: _206  and  _207
REMARK   91  A    between atoms: _207  and  _208
REMARK   92  A    between atoms: _212  and  _214
REMARK   93  A    between atoms: _214  and  _215
REMARK   94  A    between atoms: _217  and  _219
REMARK   95  A    between atoms: _219  and  _220
REMARK   96  A    between atoms: _219  and  _222
REMARK   97  A    between atoms: _225  and  _227
REMARK   98  A    between atoms: _227  and  _228
REMARK   99  A    between atoms: _227  and  _230
REMARK  100  A    between atoms: _230  and  _231
REMARK  101  A    between atoms: _233  and  _235
REMARK  102  A    between atoms: _235  and  _236
REMARK  103  A    between atoms: _235  and  _238
REMARK  104  A    between atoms: _238  and  _239
REMARK  105  A    between atoms: _241  and  _243
REMARK  106  A    between atoms: _243  and  _244
REMARK  107  A    between atoms: _243  and  _246
REMARK  108  A    between atoms: _246  and  _247
REMARK  109  A    between atoms: _253  and  _255
REMARK  110  A    between atoms: _255  and  _256
REMARK  111  A    between atoms: _255  and  _258
REMARK  112  A    between atoms: _258  and  _259
REMARK  113  A    between atoms: _262  and  _264
REMARK  114  A    between atoms: _264  and  _265
REMARK  115  A    between atoms: _264  and  _267
REMARK  116  A    between atoms: _267  and  _268
REMARK  117  A    between atoms: _271  and  _273
REMARK  118  A    between atoms: _273  and  _274
REMARK  119  A    between atoms: _273  and  _276
REMARK  120  A    between atoms: _276  and  _277
REMARK  121  A    between atoms: _280  and  _282
REMARK  122  A    between atoms: _282  and  _283
REMARK  123  A    between atoms: _282  and  _285
REMARK  124  A    between atoms: _285  and  _286
REMARK  125  A    between atoms: _286  and  _287
REMARK  126  A    between atoms: _289  and  _291
REMARK  127  A    between atoms: _291  and  _292
REMARK  128  A    between atoms: _291  and  _294
REMARK  129  A    between atoms: _294  and  _295
REMARK  130  A    between atoms: _301  and  _303
REMARK  131  A    between atoms: _303  and  _304
REMARK  132  A    between atoms: _303  and  _306
REMARK  133  A    between atoms: _308  and  _310
REMARK  134  A    between atoms: _310  and  _311
REMARK  135  A    between atoms: _314  and  _316
REMARK  136  A    between atoms: _316  and  _317
REMARK  137  A    between atoms: _319  and  _321
REMARK  138  A    between atoms: _321  and  _322
REMARK  139  A    between atoms: _321  and  _324
REMARK  140  A    between atoms: _324  and  _325
REMARK  141  A    between atoms: _328  and  _330
REMARK  142  A    between atoms: _330  and  _331
REMARK  143  A    between atoms: _334  and  _336
REMARK  144  A    between atoms: _336  and  _337
REMARK  145  A    between atoms: _336  and  _339
REMARK  146  A    between atoms: _339  and  _340
REMARK  147  A    between atoms: _340  and  _463
REMARK  148  A    between atoms: _341  and  _343
REMARK  149  A    between atoms: _343  and  _344
REMARK  150  A    between atoms: _343  and  _346
REMARK  151  A    between atoms: _346  and  _347
REMARK  152  A    between atoms: _347  and  _348
REMARK  153  A    between atoms: _353  and  _355
REMARK  154  A    between atoms: _355  and  _356
REMARK  155  A    between atoms: _358  and  _360
REMARK  156  A    between atoms: _360  and  _361
REMARK  157  A    between atoms: _360  and  _363
REMARK  158  A    between atoms: _363  and  _364
REMARK  159  A    between atoms: _367  and  _369
REMARK  160  A    between atoms: _369  and  _370
REMARK  161  A    between atoms: _369  and  _372
REMARK  162  A    between atoms: _372  and  _373
REMARK  163  A    between atoms: _375  and  _377
REMARK  164  A    between atoms: _377  and  _378
REMARK  165  A    between atoms: _380  and  _382
REMARK  166  A    between atoms: _382  and  _383
REMARK  167  A    between atoms: _385  and  _387
REMARK  168  A    between atoms: _387  and  _388
REMARK  169  A    between atoms: _387  and  _390
REMARK  170  A    between atoms: _390  and  _391
REMARK  171  A    between atoms: _396  and  _398
REMARK  172  A    between atoms: _398  and  _399
REMARK  173  A    between atoms: _398  and  _401
REMARK  174  A    between atoms: _401  and  _402
REMARK  175  A    between atoms: _405  and  _407
REMARK  176  A    between atoms: _407  and  _408
REMARK  177  A    between atoms: _407  and  _410
REMARK  178  A    between atoms: _413  and  _415
REMARK  179  A    between atoms: _415  and  _416
REMARK  180  A    between atoms: _415  and  _418
REMARK  181  A    between atoms: _418  and  _419
REMARK  182  A    between atoms: _421  and  _423
REMARK  183  A    between atoms: _423  and  _424
REMARK  184  A    between atoms: _423  and  _426
REMARK  185  A    between atoms: _426  and  _427
REMARK  186  A    between atoms: _437  and  _439
REMARK  187  A    between atoms: _439  and  _440
REMARK  188  A    between atoms: _442  and  _444
REMARK  189  A    between atoms: _444  and  _445
REMARK  190  A    between atoms: _444  and  _447
REMARK  191  A    between atoms: _447  and  _448
REMARK  192  A    between atoms: _448  and  _449
REMARK  193  A    between atoms: _452  and  _454
REMARK  194  A    between atoms: _454  and  _455
REMARK  195  A    between atoms: _457  and  _459
REMARK  196  A    between atoms: _459  and  _460
REMARK  197  A    between atoms: _459  and  _462
REMARK  198  A    between atoms: _462  and  _463
REMARK  199  A    between atoms: _464  and  _466
REMARK  200  A    between atoms: _466  and  _467
REMARK  201  A    between atoms: _470  and  _472
REMARK  202  A    between atoms: _472  and  _473
REMARK  203  A    between atoms: _472  and  _475
REMARK  204  A    between atoms: _475  and  _476
REMARK  205  A    between atoms: _476  and  _477
REMARK  206  A    between atoms: _477  and  _478
REMARK  207  A    between atoms: _487  and  _489
REMARK  208  A    between atoms: _489  and  _490
REMARK  209  A    between atoms: _489  and  _492
REMARK  210  A    between atoms: _492  and  _493
REMARK  211  A    between atoms: _498  and  _499
REMARK  212  A    between atoms: _501  and  _503
REMARK  213  A    between atoms: _503  and  _504
REMARK  214  A    between atoms: _506  and  _508
REMARK  215  A    between atoms: _508  and  _509
REMARK  216  A    between atoms: _508  and  _511
REMARK  217  A    between atoms: _511  and  _512
REMARK  218  A    between atoms: _515  and  _517
REMARK  219  A    between atoms: _517  and  _518
REMARK  220  A    between atoms: _517  and  _520
REMARK  221  A    between atoms: _520  and  _521
REMARK  222  A    between atoms: _526  and  _527
REMARK  223  A    between atoms: _529  and  _531
REMARK  224  A    between atoms: _531  and  _532
REMARK  225  A    between atoms: _531  and  _534
REMARK  226  A    between atoms: _534  and  _535
REMARK                            x       y       z     vdW  Elec       q    Type
REMARK                         _______ _______ _______ _____ _____    ______ ____
ROOT
ATOM      1  CB  HIS A   1      23.607  59.221   7.035  0.00  0.00    +0.072 C 
ENDROOT
BRANCH   1   2
ATOM      2  CG  HIS A   1      23.638  58.915   8.496  0.00  0.00    +0.082 A 
ATOM      3  CD2 HIS A   1      22.982  59.477   9.539  0.00  0.00    +0.115 A 
ATOM      4  NE2 HIS A   1      23.378  58.807  10.671  0.00  0.00    -0.221 NA
ATOM      5  CE1 HIS A   1      24.230  57.858  10.335  0.00  0.00    +0.199 A 
ATOM      6  ND1 HIS A   1      24.410  57.904   9.028  0.00  0.00    -0.227 NA
ENDBRANCH   1   2
BRANCH   1   7
ATOM      7  CA  HIS A   1      24.901  59.837   6.501  0.00  0.00    +0.139 C 
BRANCH   7   8
ATOM      8  N   HIS A   1      24.875  59.913   5.055  0.00  0.00    -0.239 NA
ATOM      9  H   HIS A   1      24.764  59.039   4.502  0.00  0.00    +0.142 HD
ENDBRANCH   7   8
BRANCH   7  10
ATOM     10  C   HIS A   1      26.113  58.956   6.760  0.00  0.00    +0.224 C 
ATOM     11  O   HIS A   1      26.188  57.825   6.279  0.00  0.00    -0.287 OA
ENDBRANCH   7  10
ENDBRANCH   1   7
TORSDOF 4
REMARK  Name = ../refined-set-2016/2xc0/2xc0_pocket.pdb
REMARK  226 active torsions:
REMARK  status: ('A' for Active; 'I' for Inactive)
REMARK    1  A    between atoms: _1  and  _5
REMARK    2  A    between atoms: _5  and  _6
REMARK    3  A    between atoms: _5  and  _8
REMARK    4  A    between atoms: _8  and  _9
REMARK    5  A    between atoms: _12  and  _14
REMARK    6  A    between atoms: _14  and  _15
REMARK    7  A    between atoms: _14  and  _17
REMARK    8  A    between atoms: _20  and  _22
REMARK    9  A    between atoms: _22  and  _23
REMARK   10  A    between atoms: _22  and  _25
REMARK   11  A    between atoms: _25  and  _26
REMARK   12  A    between atoms: _26  and  _55
REMARK   13  A    between atoms: _27  and  _29
REMARK   14  A    between atoms: _29  and  _30
REMARK   15  A    between atoms: _32  and  _34
REMARK   16  A    between atoms: _34  and  _35
REMARK   17  A    between atoms: _38  and  _40
REMARK   18  A    between atoms: _40  and  _41
REMARK   19  A    between atoms: _40  and  _43
REMARK   20  A    between atoms: _43  and  _44
REMARK   21  A    between atoms: _49  and  _51
REMARK   22  A    between atoms: _51  and  _52
REMARK   23  A    between atoms: _51  and  _54
REMARK   24  A    between atoms: _54  and  _55
REMARK   25  A    between atoms: _56  and  _58
REMARK   26  A    between atoms: _58  and  _59
REMARK   27  A    between atoms: _58  and  _61
REMARK   28  A    between atoms: _61  and  _62
REMARK   29  A    between atoms: _62  and  _63
REMARK   30  A    between atoms: _68  and  _70
REMARK   31  A    between atoms: _70  and  _71
REMARK   32  A    between atoms: _70  and  _73
REMARK   33  A    between atoms: _73  and  _74
REMARK   34  A    between atoms: _80  and  _82
REMARK   35  A    between atoms: _82  and  _83
REMARK   36  A    between atoms: _82  and  _85
REMARK   37  A    between atoms: _85  and  _86
REMARK   38  A    between atoms: _89  and  _91
REMARK   39  A    between atoms: _91  and  _92
REMARK   40  A    between atoms: _91  and  _94
REMARK   41  A    between atoms: _94  and  _95
REMARK   42  A    between atoms: _95  and  _96
REMARK   43  A    between atoms: _96  and  _97
REMARK   44  A    between atoms: _97  and  _98
REMARK   45  A    between atoms: _102  and  _104
REMARK   46  A    between atoms: _104  and  _105
REMARK   47  A    between atoms: _104  and  _107
REMARK   48  A    between atoms: _107  and  _108
REMARK   49  A    between atoms: _108  and  _109
REMARK   50  A    between atoms: _112  and  _114
REMARK   51  A    between atoms: _114  and  _115
REMARK   52  A    between atoms: _114  and  _117
REMARK   53  A    between atoms: _117  and  _118
REMARK   54  A    between atoms: _121  and  _123
REMARK   55  A    between atoms: _123  and  _124
REMARK   56  A    between atoms: _123  and  _126
REMARK   57  A    between atoms: _126  and  _127
REMARK   58  A    between atoms: _132  and  _133
REMARK   59  A    between atoms: _135  and  _137
REMARK   60  A    between atoms: _137  and  _138
REMARK   61  A    between atoms: _137  and  _140
REMARK   62  A    between atoms: _140  and  _141
REMARK   63  A    between atoms: _144  and  _146
REMARK   64  A    between atoms: _146  and  _147
REMARK   65  A    between atoms: _146  and  _149
REMARK   66  A    between atoms: _149  and  _150
REMARK   67  A    between atoms: _153  and  _155
REMARK   68  A    between atoms: _155  and  _156
REMARK   69  A    between atoms: _155  and  _158
REMARK   70  A    between atoms: _161  and  _163
REMARK   71  A    between atoms: _163  and  _164
REMARK   72  A    between atoms: _163  and  _166
REMARK   73  A    between atoms: _166  and  _167
REMARK   74  A    between atoms: _167  and  _168
REMARK   75  A    between atoms: _168  and  _169
REMARK   76  A    between atoms: _178  and  _180
REMARK   77  A    between atoms: _180  and  _181
REMARK   78  A    between atoms: _180  and  _183
REMARK   79  A    between atoms: _183  and  _184
REMARK   80  A    between atoms: _189  and  _191
REMARK   81  A    between atoms: _191  and  _192
REMARK   82  A    between atoms: _191  and  _194
REMARK   83  A    between atoms: _194  and  _195
REMARK   84  A    between atoms: _195  and  _196
REMARK   85  A    between atoms: _199  and  _201
REMARK   86  A    between atoms: _201  and  _202
REMARK   87  A    between atoms: _201  and  _204
REMARK   88  A    between atoms: _204  and  _205
REMARK   89  A    between atoms: _205  and  _206
REMARK   90  A    between atoms: _206  and  _207
REMARK   91  A    between atoms: _207  and  _208
REMARK   92  A    between atoms: _212  and  _214
REMARK   93  A    between atoms: _214  and  _215
REMARK   94  A    between atoms: _217  and  _219
REMARK   95  A    between atoms: _219  and  _220
REMARK   96  A    between atoms: _219  and  _222
REMARK   97  A    between atoms: _225  and  _227
REMARK   98  A    between atoms: _227  and  _228
REMARK   99  A    between atoms: _227  and  _230
REMARK  100  A    between atoms: _230  and  _231
REMARK  101  A    between atoms: _233  and  _235
REMARK  102  A    between atoms: _235  and  _236
REMARK  103  A    between atoms: _235  and  _238
REMARK  104  A    between atoms: _238  and  _239
REMARK  105  A    between atoms: _241  and  _243
REMARK  106  A    between atoms: _243  and  _244
REMARK  107  A    between atoms: _243  and  _246
REMARK  108  A    between atoms: _246  and  _247
REMARK  109  A    between atoms: _253  and  _255
REMARK  110  A    between atoms: _255  and  _256
REMARK  111  A    between atoms: _255  and  _258
REMARK  112  A    between atoms: _258  and  _259
REMARK  113  A    between atoms: _262  and  _264
REMARK  114  A    between atoms: _264  and  _265
REMARK  115  A    between atoms: _264  and  _267
REMARK  116  A    between atoms: _267  and  _268
REMARK  117  A    between atoms: _271  and  _273
REMARK  118  A    between atoms: _273  and  _274
REMARK  119  A    between atoms: _273  and  _276
REMARK  120  A    between atoms: _276  and  _277
REMARK  121  A    between atoms: _280  and  _282
REMARK  122  A    between atoms: _282  and  _283
REMARK  123  A    between atoms: _282  and  _285
REMARK  124  A    between atoms: _285  and  _286
REMARK  125  A    between atoms: _286  and  _287
REMARK  126  A    between atoms: _289  and  _291
REMARK  127  A    between atoms: _291  and  _292
REMARK  128  A    between atoms: _291  and  _294
REMARK  129  A    between atoms: _294  and  _295
REMARK  130  A    between atoms: _301  and  _303
REMARK  131  A    between atoms: _303  and  _304
REMARK  132  A    between atoms: _303  and  _306
REMARK  133  A    between atoms: _308  and  _310
REMARK  134  A    between atoms: _310  and  _311
REMARK  135  A    between atoms: _314  and  _316
REMARK  136  A    between atoms: _316  and  _317
REMARK  137  A    between atoms: _319  and  _321
REMARK  138  A    between atoms: _321  and  _322
REMARK  139  A    between atoms: _321  and  _324
REMARK  140  A    between atoms: _324  and  _325
REMARK  141  A    between atoms: _328  and  _330
REMARK  142  A    between atoms: _330  and  _331
REMARK  143  A    between atoms: _334  and  _336
REMARK  144  A    between atoms: _336  and  _337
REMARK  145  A    between atoms: _336  and  _339
REMARK  146  A    between atoms: _339  and  _340
REMARK  147  A    between atoms: _340  and  _463
REMARK  148  A    between atoms: _341  and  _343
REMARK  149  A    between atoms: _343  and  _344
REMARK  150  A    between atoms: _343  and  _346
REMARK  151  A    between atoms: _346  and  _347
REMARK  152  A    between atoms: _347  and  _348
REMARK  153  A    between atoms: _353  and  _355
REMARK  154  A    between atoms: _355  and  _356
REMARK  155  A    between atoms: _358  and  _360
REMARK  156  A    between atoms: _360  and  _361
REMARK  157  A    between atoms: _360  and  _363
REMARK  158  A    between atoms: _363  and  _364
REMARK  159  A    between atoms: _367  and  _369
REMARK  160  A    between atoms: _369  and  _370
REMARK  161  A    between atoms: _369  and  _372
REMARK  162  A    between atoms: _372  and  _373
REMARK  163  A    between atoms: _375  and  _377
REMARK  164  A    between atoms: _377  and  _378
REMARK  165  A    between atoms: _380  and  _382
REMARK  166  A    between atoms: _382  and  _383
REMARK  167  A    between atoms: _385  and  _387
REMARK  168  A    between atoms: _387  and  _388
REMARK  169  A    between atoms: _387  and  _390
REMARK  170  A    between atoms: _390  and  _391
REMARK  171  A    between atoms: _396  and  _398
REMARK  172  A    between atoms: _398  and  _399
REMARK  173  A    between atoms: _398  and  _401
REMARK  174  A    between atoms: _401  and  _402
REMARK  175  A    between atoms: _405  and  _407
REMARK  176  A    between atoms: _407  and  _408
REMARK  177  A    between atoms: _407  and  _410
REMARK  178  A    between atoms: _413  and  _415
REMARK  179  A    between atoms: _415  and  _416
REMARK  180  A    between atoms: _415  and  _418
REMARK  181  A    between atoms: _418  and  _419
REMARK  182  A    between atoms: _421  and  _423
REMARK  183  A    between atoms: _423  and  _424
REMARK  184  A    between atoms: _423  and  _426
REMARK  185  A    between atoms: _426  and  _427
REMARK  186  A    between atoms: _437  and  _439
REMARK  187  A    between atoms: _439  and  _440
REMARK  188  A    between atoms: _442  and  _444
REMARK  189  A    between atoms: _444  and  _445
REMARK  190  A    between atoms: _444  and  _447
REMARK  191  A    between atoms: _447  and  _448
REMARK  192  A    between atoms: _448  and  _449
REMARK  193  A    between atoms: _452  and  _454
REMARK  194  A    between atoms: _454  and  _455
REMARK  195  A    between atoms: _457  and  _459
REMARK  196  A    between atoms: _459  and  _460
REMARK  197  A    between atoms: _459  and  _462
REMARK  198  A    between atoms: _462  and  _463
REMARK  199  A    between atoms: _464  and  _466
REMARK  200  A    between atoms: _466  and  _467
REMARK  201  A    between atoms: _470  and  _472
REMARK  202  A    between atoms: _472  and  _473
REMARK  203  A    between atoms: _472  and  _475
REMARK  204  A    between atoms: _475  and  _476
REMARK  205  A    between atoms: _476  and  _477
REMARK  206  A    between atoms: _477  and  _478
REMARK  207  A    between atoms: _487  and  _489
REMARK  208  A    between atoms: _489  and  _490
REMARK  209  A    between atoms: _489  and  _492
REMARK  210  A    between atoms: _492  and  _493
REMARK  211  A    between atoms: _498  and  _499
REMARK  212  A    between atoms: _501  and  _503
REMARK  213  A    between atoms: _503  and  _504
REMARK  214  A    between atoms: _506  and  _508
REMARK  215  A    between atoms: _508  and  _509
REMARK  216  A    between atoms: _508  and  _511
REMARK  217  A    between atoms: _511  and  _512
REMARK  218  A    between atoms: _515  and  _517
REMARK  219  A    between atoms: _517  and  _518
REMARK  220  A    between atoms: _517  and  _520
REMARK  221  A    between atoms: _520  and  _521
REMARK  222  A    between atoms: _526  and  _527
REMARK  223  A    between atoms: _529  and  _531
REMARK  224  A    between atoms: _531  and  _532
REMARK  225  A    between atoms: _531  and  _534
REMARK  226  A    between atoms: _534  and  _535
REMARK                            x       y       z     vdW  Elec       q    Type
REMARK                         _______ _______ _______ _____ _____    ______ ____
ROOT
ATOM      1  CA  ILE A   3      14.568  58.649   8.331  0.00  0.00    +0.149 C 
ENDROOT
BRANCH   1   4
ATOM      2  C   GLY A   2      14.979  60.403   9.925  0.00  0.00    +0.243 C 
ATOM      3  O   GLY A   2      15.447  59.622  10.757  0.00  0.00    -0.273 OA
ATOM      4  N   ILE A   3      14.560  60.029   8.727  0.00  0.00    -0.297 N 
ATOM      5  H   ILE A   3      14.218  60.749   8.059  0.00  0.00    +0.150 HD
BRANCH   2   6
ATOM      6  CA  GLY A   2      14.848  61.881  10.234  0.00  0.00    +0.176 C 
BRANCH   6   8
ATOM      7  C   TYR A   1      13.176  62.092  11.948  0.00  0.00    +0.239 C 
ATOM      8  N   GLY A   2      14.457  62.035  11.626  0.00  0.00    -0.296 N 
ATOM      9  H   GLY A   2      15.184  62.100  12.367  0.00  0.00    +0.150 HD
ATOM     10  O   TYR A   1      12.282  62.096  11.102  0.00  0.00    -0.274 OA
BRANCH   7  11
ATOM     11  CA  TYR A   1      12.845  62.107  13.427  0.00  0.00    +0.149 C 
BRANCH  11  12
ATOM     12  N   TYR A   1      11.412  62.326  13.623  0.00  0.00    -0.238 NA
ATOM     13  H   TYR A   1      10.734  61.636  13.240  0.00  0.00    +0.142 HD
ENDBRANCH  11  12
BRANCH  11  14
ATOM     14  CB  TYR A   1      13.260  60.777  14.068  0.00  0.00    +0.053 C 
BRANCH  14  15
ATOM     15  CG  TYR A   1      12.989  60.749  15.551  0.00  0.00    -0.020 A 
ATOM     16  CD2 TYR A   1      13.831  61.417  16.447  0.00  0.00    -0.001 A 
ATOM     17  CE2 TYR A   1      13.589  61.396  17.834  0.00  0.00    +0.036 A 
ATOM     18  CZ  TYR A   1      12.465  60.718  18.311  0.00  0.00    +0.134 A 
ATOM     19  CE1 TYR A   1      11.613  60.060  17.432  0.00  0.00    +0.036 A 
ATOM     20  CD1 TYR A   1      11.882  60.075  16.061  0.00  0.00    -0.001 A 
BRANCH  18  21
ATOM     21  OH  TYR A   1      12.190  60.705  19.663  0.00  0.00    -0.506 OA
ATOM     22  HH  TYR A   1      11.306  61.121  19.823  0.00  0.00    +0.292 HD
ENDBRANCH  18  21
ENDBRANCH  14  15
ENDBRANCH  11  14
ENDBRANCH   7  11
ENDBRANCH   6   8
ENDBRANCH   2   6
ENDBRANCH   1   4
BRANCH   1  23
ATOM     23  C   ILE A   3      15.609  58.477   7.241  0.00  0.00    +0.241 C 
ATOM     24  N   TYR A   4      16.439  57.461   7.408  0.00  0.00    -0.297 N 
ATOM     25  H   TYR A   4      16.304  56.837   8.229  0.00  0.00    +0.150 HD
ATOM     26  O   ILE A   3      15.651  59.232   6.283  0.00  0.00    -0.273 OA
BRANCH  24  27
ATOM     27  CA  TYR A   4      17.534  57.179   6.490  0.00  0.00    +0.153 C 
BRANCH  27  28
ATOM     28  C   TYR A   4      17.418  55.776   5.977  0.00  0.00    +0.241 C 
ATOM     29  O   TYR A   4      16.934  54.900   6.693  0.00  0.00    -0.273 OA
ATOM     30  N   THR A   5      17.880  55.554   4.753  0.00  0.00    -0.296 N 
ATOM     31  H   THR A   5      18.110  56.365   4.144  0.00  0.00    +0.150 HD
BRANCH  30  32
ATOM     32  CA  THR A   5      18.072  54.209   4.243  0.00  0.00    +0.164 C 
BRANCH  32  33
ATOM     33  CB  THR A   5      18.317  54.204   2.747  0.00  0.00    +0.136 C 
ATOM     34  CG2 THR A   5      18.353  52.789   2.181  0.00  0.00    +0.034 C 
BRANCH  33  35
ATOM     35  OG1 THR A   5      17.249  54.914   2.116  0.00  0.00    -0.382 OA
ATOM     36  HG1 THR A   5      17.392  54.921   1.136  0.00  0.00    +0.210 HD
ENDBRANCH  33  35
ENDBRANCH  32  33
BRANCH  32  37
ATOM     37  C   THR A   5      19.266  53.592   4.964  0.00  0.00    +0.229 C 
ATOM     38  O   THR A   5      20.334  54.206   5.043  0.00  0.00    -0.286 OA
ENDBRANCH  32  37
ENDBRANCH  30  32
ENDBRANCH  27  28
BRANCH  27  39
ATOM     39  CB  TYR A   4      18.873  57.317   7.258  0.00  0.00    +0.055 C 
BRANCH  39  40
ATOM     40  CG  TYR A   4      19.073  58.729   7.760  0.00  0.00    -0.020 A 
ATOM     41  CD2 TYR A   4      18.390  59.179   8.902  0.00  0.00    -0.001 A 
ATOM     42  CE2 TYR A   4      18.548  60.472   9.373  0.00  0.00    +0.036 A 
ATOM     43  CZ  TYR A   4      19.389  61.350   8.674  0.00  0.00    +0.134 A 
ATOM     44  CE1 TYR A   4      20.097  60.940   7.533  0.00  0.00    +0.036 A 
ATOM     45  CD1 TYR A   4      19.920  59.631   7.075  0.00  0.00    -0.001 A 
BRANCH  43  46
ATOM     46  OH  TYR A   4      19.516  62.613   9.139  0.00  0.00    -0.506 OA
ATOM     47  HH  TYR A   4      18.629  63.053   9.142  0.00  0.00    +0.292 HD
ENDBRANCH  43  46
ENDBRANCH  39  40
ENDBRANCH  27  39
ENDBRANCH  24  27
ENDBRANCH   1  23
BRANCH   1  48
ATOM     48  CB  ILE A   3      13.176  58.171   7.837  0.00  0.00    +0.027 C 
ATOM     49  CG2 ILE A   3      13.173  56.658   7.673  0.00  0.00    +0.002 C 
BRANCH  48  50
ATOM     50  CG1 ILE A   3      12.036  58.748   8.710  0.00  0.00    +0.002 C 
ATOM     51  CD1 ILE A   3      11.978  58.278  10.161  0.00  0.00    +0.000 C 
ENDBRANCH  48  50
ENDBRANCH   1  48
TORSDOF 20
REMARK  Name = ../refined-set-2016/2xc0/2xc0_pocket.pdb
REMARK  226 active torsions:
REMARK  status: ('A' for Active; 'I' for Inactive)
REMARK    1  A    between atoms: _1  and  _5
REMARK    2  A    between atoms: _5  and  _6
REMARK    3  A    between atoms: _5  and  _8
REMARK    4  A    between atoms: _8  and  _9
REMARK    5  A    between atoms: _12  and  _14
REMARK    6  A    between atoms: _14  and  _15
REMARK    7  A    between atoms: _14  and  _17
REMARK    8  A    between atoms: _20  and  _22
REMARK    9  A    between atoms: _22  and  _23
REMARK   10  A    between atoms: _22  and  _25
REMARK   11  A    between atoms: _25  and  _26
REMARK   12  A    between atoms: _26  and  _55
REMARK   13  A    between atoms: _27  and  _29
REMARK   14  A    between atoms: _29  and  _30
REMARK   15  A    between atoms: _32  and  _34
REMARK   16  A    between atoms: _34  and  _35
REMARK   17  A    between atoms: _38  and  _40
REMARK   18  A    between atoms: _40  and  _41
REMARK   19  A    between atoms: _40  and  _43
REMARK   20  A    between atoms: _43  and  _44
REMARK   21  A    between atoms: _49  and  _51
REMARK   22  A    between atoms: _51  and  _52
REMARK   23  A    between atoms: _51  and  _54
REMARK   24  A    between atoms: _54  and  _55
REMARK   25  A    between atoms: _56  and  _58
REMARK   26  A    between atoms: _58  and  _59
REMARK   27  A    between atoms: _58  and  _61
REMARK   28  A    between atoms: _61  and  _62
REMARK   29  A    between atoms: _62  and  _63
REMARK   30  A    between atoms: _68  and  _70
REMARK   31  A    between atoms: _70  and  _71
REMARK   32  A    between atoms: _70  and  _73
REMARK   33  A    between atoms: _73  and  _74
REMARK   34  A    between atoms: _80  and  _82
REMARK   35  A    between atoms: _82  and  _83
REMARK   36  A    between atoms: _82  and  _85
REMARK   37  A    between atoms: _85  and  _86
REMARK   38  A    between atoms: _89  and  _91
REMARK   39  A    between atoms: _91  and  _92
REMARK   40  A    between atoms: _91  and  _94
REMARK   41  A    between atoms: _94  and  _95
REMARK   42  A    between atoms: _95  and  _96
REMARK   43  A    between atoms: _96  and  _97
REMARK   44  A    between atoms: _97  and  _98
REMARK   45  A    between atoms: _102  and  _104
REMARK   46  A    between atoms: _104  and  _105
REMARK   47  A    between atoms: _104  and  _107
REMARK   48  A    between atoms: _107  and  _108
REMARK   49  A    between atoms: _108  and  _109
REMARK   50  A    between atoms: _112  and  _114
REMARK   51  A    between atoms: _114  and  _115
REMARK   52  A    between atoms: _114  and  _117
REMARK   53  A    between atoms: _117  and  _118
REMARK   54  A    between atoms: _121  and  _123
REMARK   55  A    between atoms: _123  and  _124
REMARK   56  A    between atoms: _123  and  _126
REMARK   57  A    between atoms: _126  and  _127
REMARK   58  A    between atoms: _132  and  _133
REMARK   59  A    between atoms: _135  and  _137
REMARK   60  A    between atoms: _137  and  _138
REMARK   61  A    between atoms: _137  and  _140
REMARK   62  A    between atoms: _140  and  _141
REMARK   63  A    between atoms: _144  and  _146
REMARK   64  A    between atoms: _146  and  _147
REMARK   65  A    between atoms: _146  and  _149
REMARK   66  A    between atoms: _149  and  _150
REMARK   67  A    between atoms: _153  and  _155
REMARK   68  A    between atoms: _155  and  _156
REMARK   69  A    between atoms: _155  and  _158
REMARK   70  A    between atoms: _161  and  _163
REMARK   71  A    between atoms: _163  and  _164
REMARK   72  A    between atoms: _163  and  _166
REMARK   73  A    between atoms: _166  and  _167
REMARK   74  A    between atoms: _167  and  _168
REMARK   75  A    between atoms: _168  and  _169
REMARK   76  A    between atoms: _178  and  _180
REMARK   77  A    between atoms: _180  and  _181
REMARK   78  A    between atoms: _180  and  _183
REMARK   79  A    between atoms: _183  and  _184
REMARK   80  A    between atoms: _189  and  _191
REMARK   81  A    between atoms: _191  and  _192
REMARK   82  A    between atoms: _191  and  _194
REMARK   83  A    between atoms: _194  and  _195
REMARK   84  A    between atoms: _195  and  _196
REMARK   85  A    between atoms: _199  and  _201
REMARK   86  A    between atoms: _201  and  _202
REMARK   87  A    between atoms: _201  and  _204
REMARK   88  A    between atoms: _204  and  _205
REMARK   89  A    between atoms: _205  and  _206
REMARK   90  A    between atoms: _206  and  _207
REMARK   91  A    between atoms: _207  and  _208
REMARK   92  A    between atoms: _212  and  _214
REMARK   93  A    between atoms: _214  and  _215
REMARK   94  A    between atoms: _217  and  _219
REMARK   95  A    between atoms: _219  and  _220
REMARK   96  A    between atoms: _219  and  _222
REMARK   97  A    between atoms: _225  and  _227
REMARK   98  A    between atoms: _227  and  _228
REMARK   99  A    between atoms: _227  and  _230
REMARK  100  A    between atoms: _230  and  _231
REMARK  101  A    between atoms: _233  and  _235
REMARK  102  A    between atoms: _235  and  _236
REMARK  103  A    between atoms: _235  and  _238
REMARK  104  A    between atoms: _238  and  _239
REMARK  105  A    between atoms: _241  and  _243
REMARK  106  A    between atoms: _243  and  _244
REMARK  107  A    between atoms: _243  and  _246
REMARK  108  A    between atoms: _246  and  _247
REMARK  109  A    between atoms: _253  and  _255
REMARK  110  A    between atoms: _255  and  _256
REMARK  111  A    between atoms: _255  and  _258
REMARK  112  A    between atoms: _258  and  _259
REMARK  113  A    between atoms: _262  and  _264
REMARK  114  A    between atoms: _264  and  _265
REMARK  115  A    between atoms: _264  and  _267
REMARK  116  A    between atoms: _267  and  _268
REMARK  117  A    between atoms: _271  and  _273
REMARK  118  A    between atoms: _273  and  _274
REMARK  119  A    between atoms: _273  and  _276
REMARK  120  A    between atoms: _276  and  _277
REMARK  121  A    between atoms: _280  and  _282
REMARK  122  A    between atoms: _282  and  _283
REMARK  123  A    between atoms: _282  and  _285
REMARK  124  A    between atoms: _285  and  _286
REMARK  125  A    between atoms: _286  and  _287
REMARK  126  A    between atoms: _289  and  _291
REMARK  127  A    between atoms: _291  and  _292
REMARK  128  A    between atoms: _291  and  _294
REMARK  129  A    between atoms: _294  and  _295
REMARK  130  A    between atoms: _301  and  _303
REMARK  131  A    between atoms: _303  and  _304
REMARK  132  A    between atoms: _303  and  _306
REMARK  133  A    between atoms: _308  and  _310
REMARK  134  A    between atoms: _310  and  _311
REMARK  135  A    between atoms: _314  and  _316
REMARK  136  A    between atoms: _316  and  _317
REMARK  137  A    between atoms: _319  and  _321
REMARK  138  A    between atoms: _321  and  _322
REMARK  139  A    between atoms: _321  and  _324
REMARK  140  A    between atoms: _324  and  _325
REMARK  141  A    between atoms: _328  and  _330
REMARK  142  A    between atoms: _330  and  _331
REMARK  143  A    between atoms: _334  and  _336
REMARK  144  A    between atoms: _336  and  _337
REMARK  145  A    between atoms: _336  and  _339
REMARK  146  A    between atoms: _339  and  _340
REMARK  147  A    between atoms: _340  and  _463
REMARK  148  A    between atoms: _341  and  _343
REMARK  149  A    between atoms: _343  and  _344
REMARK  150  A    between atoms: _343  and  _346
REMARK  151  A    between atoms: _346  and  _347
REMARK  152  A    between atoms: _347  and  _348
REMARK  153  A    between atoms: _353  and  _355
REMARK  154  A    between atoms: _355  and  _356
REMARK  155  A    between atoms: _358  and  _360
REMARK  156  A    between atoms: _360  and  _361
REMARK  157  A    between atoms: _360  and  _363
REMARK  158  A    between atoms: _363  and  _364
REMARK  159  A    between atoms: _367  and  _369
REMARK  160  A    between atoms: _369  and  _370
REMARK  161  A    between atoms: _369  and  _372
REMARK  162  A    between atoms: _372  and  _373
REMARK  163  A    between atoms: _375  and  _377
REMARK  164  A    between atoms: _377  and  _378
REMARK  165  A    between atoms: _380  and  _382
REMARK  166  A    between atoms: _382  and  _383
REMARK  167  A    between atoms: _385  and  _387
REMARK  168  A    between atoms: _387  and  _388
REMARK  169  A    between atoms: _387  and  _390
REMARK  170  A    between atoms: _390  and  _391
REMARK  171  A    between atoms: _396  and  _398
REMARK  172  A    between atoms: _398  and  _399
REMARK  173  A    between atoms: _398  and  _401
REMARK  174  A    between atoms: _401  and  _402
REMARK  175  A    between atoms: _405  and  _407
REMARK  176  A    between atoms: _407  and  _408
REMARK  177  A    between atoms: _407  and  _410
REMARK  178  A    between atoms: _413  and  _415
REMARK  179  A    between atoms: _415  and  _416
REMARK  180  A    between atoms: _415  and  _418
REMARK  181  A    between atoms: _418  and  _419
REMARK  182  A    between atoms: _421  and  _423
REMARK  183  A    between atoms: _423  and  _424
REMARK  184  A    between atoms: _423  and  _426
REMARK  185  A    between atoms: _426  and  _427
REMARK  186  A    between atoms: _437  and  _439
REMARK  187  A    between atoms: _439  and  _440
REMARK  188  A    between atoms: _442  and  _444
REMARK  189  A    between atoms: _444  and  _445
REMARK  190  A    between atoms: _444  and  _447
REMARK  191  A    between atoms: _447  and  _448
REMARK  192  A    between atoms: _448  and  _449
REMARK  193  A    between atoms: _452  and  _454
REMARK  194  A    between atoms: _454  and  _455
REMARK  195  A    between atoms: _457  and  _459
REMARK  196  A    between atoms: _459  and  _460
REMARK  197  A    between atoms: _459  and  _462
REMARK  198  A    between atoms: _462  and  _463
REMARK  199  A    between atoms: _464  and  _466
REMARK  200  A    between atoms: _466  and  _467
REMARK  201  A    between atoms: _470  and  _472
REMARK  202  A    between atoms: _472  and  _473
REMARK  203  A    between atoms: _472  and  _475
REMARK  204  A    between atoms: _475  and  _476
REMARK  205  A    between atoms: _476  and  _477
REMARK  206  A    between atoms: _477  and  _478
REMARK  207  A    between atoms: _487  and  _489
REMARK  208  A    between atoms: _489  and  _490
REMARK  209  A    between atoms: _489  and  _492
REMARK  210  A    between atoms: _492  and  _493
REMARK  211  A    between atoms: _498  and  _499
REMARK  212  A    between atoms: _501  and  _503
REMARK  213  A    between atoms: _503  and  _504
REMARK  214  A    between atoms: _506  and  _508
REMARK  215  A    between atoms: _508  and  _509
REMARK  216  A    between atoms: _508  and  _511
REMARK  217  A    between atoms: _511  and  _512
REMARK  218  A    between atoms: _515  and  _517
REMARK  219  A    between atoms: _517  and  _518
REMARK  220  A    between atoms: _517  and  _520
REMARK  221  A    between atoms: _520  and  _521
REMARK  222  A    between atoms: _526  and  _527
REMARK  223  A    between atoms: _529  and  _531
REMARK  224  A    between atoms: _531  and  _532
REMARK  225  A    between atoms: _531  and  _534
REMARK  226  A    between atoms: _534  and  _535
REMARK                            x       y       z     vdW  Elec       q    Type
REMARK                         _______ _______ _______ _____ _____    ______ ____
ROOT
ATOM      1  O   HOH     1      13.534  64.624  -2.227  0.00  0.00    +0.000 OA
ENDROOT
TORSDOF 0
REMARK  Name = ../refined-set-2016/2xc0/2xc0_pocket.pdb
REMARK  226 active torsions:
REMARK  status: ('A' for Active; 'I' for Inactive)
REMARK    1  A    between atoms: _1  and  _5
REMARK    2  A    between atoms: _5  and  _6
REMARK    3  A    between atoms: _5  and  _8
REMARK    4  A    between atoms: _8  and  _9
REMARK    5  A    between atoms: _12  and  _14
REMARK    6  A    between atoms: _14  and  _15
REMARK    7  A    between atoms: _14  and  _17
REMARK    8  A    between atoms: _20  and  _22
REMARK    9  A    between atoms: _22  and  _23
REMARK   10  A    between atoms: _22  and  _25
REMARK   11  A    between atoms: _25  and  _26
REMARK   12  A    between atoms: _26  and  _55
REMARK   13  A    between atoms: _27  and  _29
REMARK   14  A    between atoms: _29  and  _30
REMARK   15  A    between atoms: _32  and  _34
REMARK   16  A    between atoms: _34  and  _35
REMARK   17  A    between atoms: _38  and  _40
REMARK   18  A    between atoms: _40  and  _41
REMARK   19  A    between atoms: _40  and  _43
REMARK   20  A    between atoms: _43  and  _44
REMARK   21  A    between atoms: _49  and  _51
REMARK   22  A    between atoms: _51  and  _52
REMARK   23  A    between atoms: _51  and  _54
REMARK   24  A    between atoms: _54  and  _55
REMARK   25  A    between atoms: _56  and  _58
REMARK   26  A    between atoms: _58  and  _59
REMARK   27  A    between atoms: _58  and  _61
REMARK   28  A    between atoms: _61  and  _62
REMARK   29  A    between atoms: _62  and  _63
REMARK   30  A    between atoms: _68  and  _70
REMARK   31  A    between atoms: _70  and  _71
REMARK   32  A    between atoms: _70  and  _73
REMARK   33  A    between atoms: _73  and  _74
REMARK   34  A    between atoms: _80  and  _82
REMARK   35  A    between atoms: _82  and  _83
REMARK   36  A    between atoms: _82  and  _85
REMARK   37  A    between atoms: _85  and  _86
REMARK   38  A    between atoms: _89  and  _91
REMARK   39  A    between atoms: _91  and  _92
REMARK   40  A    between atoms: _91  and  _94
REMARK   41  A    between atoms: _94  and  _95
REMARK   42  A    between atoms: _95  and  _96
REMARK   43  A    between atoms: _96  and  _97
REMARK   44  A    between atoms: _97  and  _98
REMARK   45  A    between atoms: _102  and  _104
REMARK   46  A    between atoms: _104  and  _105
REMARK   47  A    between atoms: _104  and  _107
REMARK   48  A    between atoms: _107  and  _108
REMARK   49  A    between atoms: _108  and  _109
REMARK   50  A    between atoms: _112  and  _114
REMARK   51  A    between atoms: _114  and  _115
REMARK   52  A    between atoms: _114  and  _117
REMARK   53  A    between atoms: _117  and  _118
REMARK   54  A    between atoms: _121  and  _123
REMARK   55  A    between atoms: _123  and  _124
REMARK   56  A    between atoms: _123  and  _126
REMARK   57  A    between atoms: _126  and  _127
REMARK   58  A    between atoms: _132  and  _133
REMARK   59  A    between atoms: _135  and  _137
REMARK   60  A    between atoms: _137  and  _138
REMARK   61  A    between atoms: _137  and  _140
REMARK   62  A    between atoms: _140  and  _141
REMARK   63  A    between atoms: _144  and  _146
REMARK   64  A    between atoms: _146  and  _147
REMARK   65  A    between atoms: _146  and  _149
REMARK   66  A    between atoms: _149  and  _150
REMARK   67  A    between atoms: _153  and  _155
REMARK   68  A    between atoms: _155  and  _156
REMARK   69  A    between atoms: _155  and  _158
REMARK   70  A    between atoms: _161  and  _163
REMARK   71  A    between atoms: _163  and  _164
REMARK   72  A    between atoms: _163  and  _166
REMARK   73  A    between atoms: _166  and  _167
REMARK   74  A    between atoms: _167  and  _168
REMARK   75  A    between atoms: _168  and  _169
REMARK   76  A    between atoms: _178  and  _180
REMARK   77  A    between atoms: _180  and  _181
REMARK   78  A    between atoms: _180  and  _183
REMARK   79  A    between atoms: _183  and  _184
REMARK   80  A    between atoms: _189  and  _191
REMARK   81  A    between atoms: _191  and  _192
REMARK   82  A    between atoms: _191  and  _194
REMARK   83  A    between atoms: _194  and  _195
REMARK   84  A    between atoms: _195  and  _196
REMARK   85  A    between atoms: _199  and  _201
REMARK   86  A    between atoms: _201  and  _202
REMARK   87  A    between atoms: _201  and  _204
REMARK   88  A    between atoms: _204  and  _205
REMARK   89  A    between atoms: _205  and  _206
REMARK   90  A    between atoms: _206  and  _207
REMARK   91  A    between atoms: _207  and  _208
REMARK   92  A    between atoms: _212  and  _214
REMARK   93  A    between atoms: _214  and  _215
REMARK   94  A    between atoms: _217  and  _219
REMARK   95  A    between atoms: _219  and  _220
REMARK   96  A    between atoms: _219  and  _222
REMARK   97  A    between atoms: _225  and  _227
REMARK   98  A    between atoms: _227  and  _228
REMARK   99  A    between atoms: _227  and  _230
REMARK  100  A    between atoms: _230  and  _231
REMARK  101  A    between atoms: _233  and  _235
REMARK  102  A    between atoms: _235  and  _236
REMARK  103  A    between atoms: _235  and  _238
REMARK  104  A    between atoms: _238  and  _239
REMARK  105  A    between atoms: _241  and  _243
REMARK  106  A    between atoms: _243  and  _244
REMARK  107  A    between atoms: _243  and  _246
REMARK  108  A    between atoms: _246  and  _247
REMARK  109  A    between atoms: _253  and  _255
REMARK  110  A    between atoms: _255  and  _256
REMARK  111  A    between atoms: _255  and  _258
REMARK  112  A    between atoms: _258  and  _259
REMARK  113  A    between atoms: _262  and  _264
REMARK  114  A    between atoms: _264  and  _265
REMARK  115  A    between atoms: _264  and  _267
REMARK  116  A    between atoms: _267  and  _268
REMARK  117  A    between atoms: _271  and  _273
REMARK  118  A    between atoms: _273  and  _274
REMARK  119  A    between atoms: _273  and  _276
REMARK  120  A    between atoms: _276  and  _277
REMARK  121  A    between atoms: _280  and  _282
REMARK  122  A    between atoms: _282  and  _283
REMARK  123  A    between atoms: _282  and  _285
REMARK  124  A    between atoms: _285  and  _286
REMARK  125  A    between atoms: _286  and  _287
REMARK  126  A    between atoms: _289  and  _291
REMARK  127  A    between atoms: _291  and  _292
REMARK  128  A    between atoms: _291  and  _294
REMARK  129  A    between atoms: _294  and  _295
REMARK  130  A    between atoms: _301  and  _303
REMARK  131  A    between atoms: _303  and  _304
REMARK  132  A    between atoms: _303  and  _306
REMARK  133  A    between atoms: _308  and  _310
REMARK  134  A    between atoms: _310  and  _311
REMARK  135  A    between atoms: _314  and  _316
REMARK  136  A    between atoms: _316  and  _317
REMARK  137  A    between atoms: _319  and  _321
REMARK  138  A    between atoms: _321  and  _322
REMARK  139  A    between atoms: _321  and  _324
REMARK  140  A    between atoms: _324  and  _325
REMARK  141  A    between atoms: _328  and  _330
REMARK  142  A    between atoms: _330  and  _331
REMARK  143  A    between atoms: _334  and  _336
REMARK  144  A    between atoms: _336  and  _337
REMARK  145  A    between atoms: _336  and  _339
REMARK  146  A    between atoms: _339  and  _340
REMARK  147  A    between atoms: _340  and  _463
REMARK  148  A    between atoms: _341  and  _343
REMARK  149  A    between atoms: _343  and  _344
REMARK  150  A    between atoms: _343  and  _346
REMARK  151  A    between atoms: _346  and  _347
REMARK  152  A    between atoms: _347  and  _348
REMARK  153  A    between atoms: _353  and  _355
REMARK  154  A    between atoms: _355  and  _356
REMARK  155  A    between atoms: _358  and  _360
REMARK  156  A    between atoms: _360  and  _361
REMARK  157  A    between atoms: _360  and  _363
REMARK  158  A    between atoms: _363  and  _364
REMARK  159  A    between atoms: _367  and  _369
REMARK  160  A    between atoms: _369  and  _370
REMARK  161  A    between atoms: _369  and  _372
REMARK  162  A    between atoms: _372  and  _373
REMARK  163  A    between atoms: _375  and  _377
REMARK  164  A    between atoms: _377  and  _378
REMARK  165  A    between atoms: _380  and  _382
REMARK  166  A    between atoms: _382  and  _383
REMARK  167  A    between atoms: _385  and  _387
REMARK  168  A    between atoms: _387  and  _388
REMARK  169  A    between atoms: _387  and  _390
REMARK  170  A    between atoms: _390  and  _391
REMARK  171  A    between atoms: _396  and  _398
REMARK  172  A    between atoms: _398  and  _399
REMARK  173  A    between atoms: _398  and  _401
REMARK  174  A    between atoms: _401  and  _402
REMARK  175  A    between atoms: _405  and  _407
REMARK  176  A    between atoms: _407  and  _408
REMARK  177  A    between atoms: _407  and  _410
REMARK  178  A    between atoms: _413  and  _415
REMARK  179  A    between atoms: _415  and  _416
REMARK  180  A    between atoms: _415  and  _418
REMARK  181  A    between atoms: _418  and  _419
REMARK  182  A    between atoms: _421  and  _423
REMARK  183  A    between atoms: _423  and  _424
REMARK  184  A    between atoms: _423  and  _426
REMARK  185  A    between atoms: _426  and  _427
REMARK  186  A    between atoms: _437  and  _439
REMARK  187  A    between atoms: _439  and  _440
REMARK  188  A    between atoms: _442  and  _444
REMARK  189  A    between atoms: _444  and  _445
REMARK  190  A    between atoms: _444  and  _447
REMARK  191  A    between atoms: _447  and  _448
REMARK  192  A    between atoms: _448  and  _449
REMARK  193  A    between atoms: _452  and  _454
REMARK  194  A    between atoms: _454  and  _455
REMARK  195  A    between atoms: _457  and  _459
REMARK  196  A    between atoms: _459  and  _460
REMARK  197  A    between atoms: _459  and  _462
REMARK  198  A    between atoms: _462  and  _463
REMARK  199  A    between atoms: _464  and  _466
REMARK  200  A    between atoms: _466  and  _467
REMARK  201  A    between atoms: _470  and  _472
REMARK  202  A    between atoms: _472  and  _473
REMARK  203  A    between atoms: _472  and  _475
REMARK  204  A    between atoms: _475  and  _476
REMARK  205  A    between atoms: _476  and  _477
REMARK  206  A    between atoms: _477  and  _478
REMARK  207  A    between atoms: _487  and  _489
REMARK  208  A    between atoms: _489  and  _490
REMARK  209  A    between atoms: _489  and  _492
REMARK  210  A    between atoms: _492  and  _493
REMARK  211  A    between atoms: _498  and  _499
REMARK  212  A    between atoms: _501  and  _503
REMARK  213  A    between atoms: _503  and  _504
REMARK  214  A    between atoms: _506  and  _508
REMARK  215  A    between atoms: _508  and  _509
REMARK  216  A    between atoms: _508  and  _511
REMARK  217  A    between atoms: _511  and  _512
REMARK  218  A    between atoms: _515  and  _517
REMARK  219  A    between atoms: _517  and  _518
REMARK  220  A    between atoms: _517  and  _520
REMARK  221  A    between atoms: _520  and  _521
REMARK  222  A    between atoms: _526  and  _527
REMARK  223  A    between atoms: _529  and  _531
REMARK  224  A    between atoms: _531  and  _532
REMARK  225  A    between atoms: _531  and  _534
REMARK  226  A    between atoms: _534  and  _535
REMARK                            x       y       z     vdW  Elec       q    Type
REMARK                         _______ _______ _______ _____ _____    ______ ____
ROOT
ATOM      1  O   HOH     1       4.221  58.535  -0.786  0.00  0.00    +0.000 OA
ENDROOT
TORSDOF 0
REMARK  Name = ../refined-set-2016/2xc0/2xc0_pocket.pdb
REMARK  226 active torsions:
REMARK  status: ('A' for Active; 'I' for Inactive)
REMARK    1  A    between atoms: _1  and  _5
REMARK    2  A    between atoms: _5  and  _6
REMARK    3  A    between atoms: _5  and  _8
REMARK    4  A    between atoms: _8  and  _9
REMARK    5  A    between atoms: _12  and  _14
REMARK    6  A    between atoms: _14  and  _15
REMARK    7  A    between atoms: _14  and  _17
REMARK    8  A    between atoms: _20  and  _22
REMARK    9  A    between atoms: _22  and  _23
REMARK   10  A    between atoms: _22  and  _25
REMARK   11  A    between atoms: _25  and  _26
REMARK   12  A    between atoms: _26  and  _55
REMARK   13  A    between atoms: _27  and  _29
REMARK   14  A    between atoms: _29  and  _30
REMARK   15  A    between atoms: _32  and  _34
REMARK   16  A    between atoms: _34  and  _35
REMARK   17  A    between atoms: _38  and  _40
REMARK   18  A    between atoms: _40  and  _41
REMARK   19  A    between atoms: _40  and  _43
REMARK   20  A    between atoms: _43  and  _44
REMARK   21  A    between atoms: _49  and  _51
REMARK   22  A    between atoms: _51  and  _52
REMARK   23  A    between atoms: _51  and  _54
REMARK   24  A    between atoms: _54  and  _55
REMARK   25  A    between atoms: _56  and  _58
REMARK   26  A    between atoms: _58  and  _59
REMARK   27  A    between atoms: _58  and  _61
REMARK   28  A    between atoms: _61  and  _62
REMARK   29  A    between atoms: _62  and  _63
REMARK   30  A    between atoms: _68  and  _70
REMARK   31  A    between atoms: _70  and  _71
REMARK   32  A    between atoms: _70  and  _73
REMARK   33  A    between atoms: _73  and  _74
REMARK   34  A    between atoms: _80  and  _82
REMARK   35  A    between atoms: _82  and  _83
REMARK   36  A    between atoms: _82  and  _85
REMARK   37  A    between atoms: _85  and  _86
REMARK   38  A    between atoms: _89  and  _91
REMARK   39  A    between atoms: _91  and  _92
REMARK   40  A    between atoms: _91  and  _94
REMARK   41  A    between atoms: _94  and  _95
REMARK   42  A    between atoms: _95  and  _96
REMARK   43  A    between atoms: _96  and  _97
REMARK   44  A    between atoms: _97  and  _98
REMARK   45  A    between atoms: _102  and  _104
REMARK   46  A    between atoms: _104  and  _105
REMARK   47  A    between atoms: _104  and  _107
REMARK   48  A    between atoms: _107  and  _108
REMARK   49  A    between atoms: _108  and  _109
REMARK   50  A    between atoms: _112  and  _114
REMARK   51  A    between atoms: _114  and  _115
REMARK   52  A    between atoms: _114  and  _117
REMARK   53  A    between atoms: _117  and  _118
REMARK   54  A    between atoms: _121  and  _123
REMARK   55  A    between atoms: _123  and  _124
REMARK   56  A    between atoms: _123  and  _126
REMARK   57  A    between atoms: _126  and  _127
REMARK   58  A    between atoms: _132  and  _133
REMARK   59  A    between atoms: _135  and  _137
REMARK   60  A    between atoms: _137  and  _138
REMARK   61  A    between atoms: _137  and  _140
REMARK   62  A    between atoms: _140  and  _141
REMARK   63  A    between atoms: _144  and  _146
REMARK   64  A    between atoms: _146  and  _147
REMARK   65  A    between atoms: _146  and  _149
REMARK   66  A    between atoms: _149  and  _150
REMARK   67  A    between atoms: _153  and  _155
REMARK   68  A    between atoms: _155  and  _156
REMARK   69  A    between atoms: _155  and  _158
REMARK   70  A    between atoms: _161  and  _163
REMARK   71  A    between atoms: _163  and  _164
REMARK   72  A    between atoms: _163  and  _166
REMARK   73  A    between atoms: _166  and  _167
REMARK   74  A    between atoms: _167  and  _168
REMARK   75  A    between atoms: _168  and  _169
REMARK   76  A    between atoms: _178  and  _180
REMARK   77  A    between atoms: _180  and  _181
REMARK   78  A    between atoms: _180  and  _183
REMARK   79  A    between atoms: _183  and  _184
REMARK   80  A    between atoms: _189  and  _191
REMARK   81  A    between atoms: _191  and  _192
REMARK   82  A    between atoms: _191  and  _194
REMARK   83  A    between atoms: _194  and  _195
REMARK   84  A    between atoms: _195  and  _196
REMARK   85  A    between atoms: _199  and  _201
REMARK   86  A    between atoms: _201  and  _202
REMARK   87  A    between atoms: _201  and  _204
REMARK   88  A    between atoms: _204  and  _205
REMARK   89  A    between atoms: _205  and  _206
REMARK   90  A    between atoms: _206  and  _207
REMARK   91  A    between atoms: _207  and  _208
REMARK   92  A    between atoms: _212  and  _214
REMARK   93  A    between atoms: _214  and  _215
REMARK   94  A    between atoms: _217  and  _219
REMARK   95  A    between atoms: _219  and  _220
REMARK   96  A    between atoms: _219  and  _222
REMARK   97  A    between atoms: _225  and  _227
REMARK   98  A    between atoms: _227  and  _228
REMARK   99  A    between atoms: _227  and  _230
REMARK  100  A    between atoms: _230  and  _231
REMARK  101  A    between atoms: _233  and  _235
REMARK  102  A    between atoms: _235  and  _236
REMARK  103  A    between atoms: _235  and  _238
REMARK  104  A    between atoms: _238  and  _239
REMARK  105  A    between atoms: _241  and  _243
REMARK  106  A    between atoms: _243  and  _244
REMARK  107  A    between atoms: _243  and  _246
REMARK  108  A    between atoms: _246  and  _247
REMARK  109  A    between atoms: _253  and  _255
REMARK  110  A    between atoms: _255  and  _256
REMARK  111  A    between atoms: _255  and  _258
REMARK  112  A    between atoms: _258  and  _259
REMARK  113  A    between atoms: _262  and  _264
REMARK  114  A    between atoms: _264  and  _265
REMARK  115  A    between atoms: _264  and  _267
REMARK  116  A    between atoms: _267  and  _268
REMARK  117  A    between atoms: _271  and  _273
REMARK  118  A    between atoms: _273  and  _274
REMARK  119  A    between atoms: _273  and  _276
REMARK  120  A    between atoms: _276  and  _277
REMARK  121  A    between atoms: _280  and  _282
REMARK  122  A    between atoms: _282  and  _283
REMARK  123  A    between atoms: _282  and  _285
REMARK  124  A    between atoms: _285  and  _286
REMARK  125  A    between atoms: _286  and  _287
REMARK  126  A    between atoms: _289  and  _291
REMARK  127  A    between atoms: _291  and  _292
REMARK  128  A    between atoms: _291  and  _294
REMARK  129  A    between atoms: _294  and  _295
REMARK  130  A    between atoms: _301  and  _303
REMARK  131  A    between atoms: _303  and  _304
REMARK  132  A    between atoms: _303  and  _306
REMARK  133  A    between atoms: _308  and  _310
REMARK  134  A    between atoms: _310  and  _311
REMARK  135  A    between atoms: _314  and  _316
REMARK  136  A    between atoms: _316  and  _317
REMARK  137  A    between atoms: _319  and  _321
REMARK  138  A    between atoms: _321  and  _322
REMARK  139  A    between atoms: _321  and  _324
REMARK  140  A    between atoms: _324  and  _325
REMARK  141  A    between atoms: _328  and  _330
REMARK  142  A    between atoms: _330  and  _331
REMARK  143  A    between atoms: _334  and  _336
REMARK  144  A    between atoms: _336  and  _337
REMARK  145  A    between atoms: _336  and  _339
REMARK  146  A    between atoms: _339  and  _340
REMARK  147  A    between atoms: _340  and  _463
REMARK  148  A    between atoms: _341  and  _343
REMARK  149  A    between atoms: _343  and  _344
REMARK  150  A    between atoms: _343  and  _346
REMARK  151  A    between atoms: _346  and  _347
REMARK  152  A    between atoms: _347  and  _348
REMARK  153  A    between atoms: _353  and  _355
REMARK  154  A    between atoms: _355  and  _356
REMARK  155  A    between atoms: _358  and  _360
REMARK  156  A    between atoms: _360  and  _361
REMARK  157  A    between atoms: _360  and  _363
REMARK  158  A    between atoms: _363  and  _364
REMARK  159  A    between atoms: _367  and  _369
REMARK  160  A    between atoms: _369  and  _370
REMARK  161  A    between atoms: _369  and  _372
REMARK  162  A    between atoms: _372  and  _373
REMARK  163  A    between atoms: _375  and  _377
REMARK  164  A    between atoms: _377  and  _378
REMARK  165  A    between atoms: _380  and  _382
REMARK  166  A    between atoms: _382  and  _383
REMARK  167  A    between atoms: _385  and  _387
REMARK  168  A    between atoms: _387  and  _388
REMARK  169  A    between atoms: _387  and  _390
REMARK  170  A    between atoms: _390  and  _391
REMARK  171  A    between atoms: _396  and  _398
REMARK  172  A    between atoms: _398  and  _399
REMARK  173  A    between atoms: _398  and  _401
REMARK  174  A    between atoms: _401  and  _402
REMARK  175  A    between atoms: _405  and  _407
REMARK  176  A    between atoms: _407  and  _408
REMARK  177  A    between atoms: _407  and  _410
REMARK  178  A    between atoms: _413  and  _415
REMARK  179  A    between atoms: _415  and  _416
REMARK  180  A    between atoms: _415  and  _418
REMARK  181  A    between atoms: _418  and  _419
REMARK  182  A    between atoms: _421  and  _423
REMARK  183  A    between atoms: _423  and  _424
REMARK  184  A    between atoms: _423  and  _426
REMARK  185  A    between atoms: _426  and  _427
REMARK  186  A    between atoms: _437  and  _439
REMARK  187  A    between atoms: _439  and  _440
REMARK  188  A    between atoms: _442  and  _444
REMARK  189  A    between atoms: _444  and  _445
REMARK  190  A    between atoms: _444  and  _447
REMARK  191  A    between atoms: _447  and  _448
REMARK  192  A    between atoms: _448  and  _449
REMARK  193  A    between atoms: _452  and  _454
REMARK  194  A    between atoms: _454  and  _455
REMARK  195  A    between atoms: _457  and  _459
REMARK  196  A    between atoms: _459  and  _460
REMARK  197  A    between atoms: _459  and  _462
REMARK  198  A    between atoms: _462  and  _463
REMARK  199  A    between atoms: _464  and  _466
REMARK  200  A    between atoms: _466  and  _467
REMARK  201  A    between atoms: _470  and  _472
REMARK  202  A    between atoms: _472  and  _473
REMARK  203  A    between atoms: _472  and  _475
REMARK  204  A    between atoms: _475  and  _476
REMARK  205  A    between atoms: _476  and  _477
REMARK  206  A    between atoms: _477  and  _478
REMARK  207  A    between atoms: _487  and  _489
REMARK  208  A    between atoms: _489  and  _490
REMARK  209  A    between atoms: _489  and  _492
REMARK  210  A    between atoms: _492  and  _493
REMARK  211  A    between atoms: _498  and  _499
REMARK  212  A    between atoms: _501  and  _503
REMARK  213  A    between atoms: _503  and  _504
REMARK  214  A    between atoms: _506  and  _508
REMARK  215  A    between atoms: _508  and  _509
REMARK  216  A    between atoms: _508  and  _511
REMARK  217  A    between atoms: _511  and  _512
REMARK  218  A    between atoms: _515  and  _517
REMARK  219  A    between atoms: _517  and  _518
REMARK  220  A    between atoms: _517  and  _520
REMARK  221  A    between atoms: _520  and  _521
REMARK  222  A    between atoms: _526  and  _527
REMARK  223  A    between atoms: _529  and  _531
REMARK  224  A    between atoms: _531  and  _532
REMARK  225  A    between atoms: _531  and  _534
REMARK  226  A    between atoms: _534  and  _535
REMARK                            x       y       z     vdW  Elec       q    Type
REMARK                         _______ _______ _______ _____ _____    ______ ____
ROOT
ATOM      1  O   HOH     1       6.825  52.943   4.797  0.00  0.00    +0.000 OA
ENDROOT
TORSDOF 0
REMARK  Name = ../refined-set-2016/2xc0/2xc0_pocket.pdb
REMARK  226 active torsions:
REMARK  status: ('A' for Active; 'I' for Inactive)
REMARK    1  A    between atoms: _1  and  _5
REMARK    2  A    between atoms: _5  and  _6
REMARK    3  A    between atoms: _5  and  _8
REMARK    4  A    between atoms: _8  and  _9
REMARK    5  A    between atoms: _12  and  _14
REMARK    6  A    between atoms: _14  and  _15
REMARK    7  A    between atoms: _14  and  _17
REMARK    8  A    between atoms: _20  and  _22
REMARK    9  A    between atoms: _22  and  _23
REMARK   10  A    between atoms: _22  and  _25
REMARK   11  A    between atoms: _25  and  _26
REMARK   12  A    between atoms: _26  and  _55
REMARK   13  A    between atoms: _27  and  _29
REMARK   14  A    between atoms: _29  and  _30
REMARK   15  A    between atoms: _32  and  _34
REMARK   16  A    between atoms: _34  and  _35
REMARK   17  A    between atoms: _38  and  _40
REMARK   18  A    between atoms: _40  and  _41
REMARK   19  A    between atoms: _40  and  _43
REMARK   20  A    between atoms: _43  and  _44
REMARK   21  A    between atoms: _49  and  _51
REMARK   22  A    between atoms: _51  and  _52
REMARK   23  A    between atoms: _51  and  _54
REMARK   24  A    between atoms: _54  and  _55
REMARK   25  A    between atoms: _56  and  _58
REMARK   26  A    between atoms: _58  and  _59
REMARK   27  A    between atoms: _58  and  _61
REMARK   28  A    between atoms: _61  and  _62
REMARK   29  A    between atoms: _62  and  _63
REMARK   30  A    between atoms: _68  and  _70
REMARK   31  A    between atoms: _70  and  _71
REMARK   32  A    between atoms: _70  and  _73
REMARK   33  A    between atoms: _73  and  _74
REMARK   34  A    between atoms: _80  and  _82
REMARK   35  A    between atoms: _82  and  _83
REMARK   36  A    between atoms: _82  and  _85
REMARK   37  A    between atoms: _85  and  _86
REMARK   38  A    between atoms: _89  and  _91
REMARK   39  A    between atoms: _91  and  _92
REMARK   40  A    between atoms: _91  and  _94
REMARK   41  A    between atoms: _94  and  _95
REMARK   42  A    between atoms: _95  and  _96
REMARK   43  A    between atoms: _96  and  _97
REMARK   44  A    between atoms: _97  and  _98
REMARK   45  A    between atoms: _102  and  _104
REMARK   46  A    between atoms: _104  and  _105
REMARK   47  A    between atoms: _104  and  _107
REMARK   48  A    between atoms: _107  and  _108
REMARK   49  A    between atoms: _108  and  _109
REMARK   50  A    between atoms: _112  and  _114
REMARK   51  A    between atoms: _114  and  _115
REMARK   52  A    between atoms: _114  and  _117
REMARK   53  A    between atoms: _117  and  _118
REMARK   54  A    between atoms: _121  and  _123
REMARK   55  A    between atoms: _123  and  _124
REMARK   56  A    between atoms: _123  and  _126
REMARK   57  A    between atoms: _126  and  _127
REMARK   58  A    between atoms: _132  and  _133
REMARK   59  A    between atoms: _135  and  _137
REMARK   60  A    between atoms: _137  and  _138
REMARK   61  A    between atoms: _137  and  _140
REMARK   62  A    between atoms: _140  and  _141
REMARK   63  A    between atoms: _144  and  _146
REMARK   64  A    between atoms: _146  and  _147
REMARK   65  A    between atoms: _146  and  _149
REMARK   66  A    between atoms: _149  and  _150
REMARK   67  A    between atoms: _153  and  _155
REMARK   68  A    between atoms: _155  and  _156
REMARK   69  A    between atoms: _155  and  _158
REMARK   70  A    between atoms: _161  and  _163
REMARK   71  A    between atoms: _163  and  _164
REMARK   72  A    between atoms: _163  and  _166
REMARK   73  A    between atoms: _166  and  _167
REMARK   74  A    between atoms: _167  and  _168
REMARK   75  A    between atoms: _168  and  _169
REMARK   76  A    between atoms: _178  and  _180
REMARK   77  A    between atoms: _180  and  _181
REMARK   78  A    between atoms: _180  and  _183
REMARK   79  A    between atoms: _183  and  _184
REMARK   80  A    between atoms: _189  and  _191
REMARK   81  A    between atoms: _191  and  _192
REMARK   82  A    between atoms: _191  and  _194
REMARK   83  A    between atoms: _194  and  _195
REMARK   84  A    between atoms: _195  and  _196
REMARK   85  A    between atoms: _199  and  _201
REMARK   86  A    between atoms: _201  and  _202
REMARK   87  A    between atoms: _201  and  _204
REMARK   88  A    between atoms: _204  and  _205
REMARK   89  A    between atoms: _205  and  _206
REMARK   90  A    between atoms: _206  and  _207
REMARK   91  A    between atoms: _207  and  _208
REMARK   92  A    between atoms: _212  and  _214
REMARK   93  A    between atoms: _214  and  _215
REMARK   94  A    between atoms: _217  and  _219
REMARK   95  A    between atoms: _219  and  _220
REMARK   96  A    between atoms: _219  and  _222
REMARK   97  A    between atoms: _225  and  _227
REMARK   98  A    between atoms: _227  and  _228
REMARK   99  A    between atoms: _227  and  _230
REMARK  100  A    between atoms: _230  and  _231
REMARK  101  A    between atoms: _233  and  _235
REMARK  102  A    between atoms: _235  and  _236
REMARK  103  A    between atoms: _235  and  _238
REMARK  104  A    between atoms: _238  and  _239
REMARK  105  A    between atoms: _241  and  _243
REMARK  106  A    between atoms: _243  and  _244
REMARK  107  A    between atoms: _243  and  _246
REMARK  108  A    between atoms: _246  and  _247
REMARK  109  A    between atoms: _253  and  _255
REMARK  110  A    between atoms: _255  and  _256
REMARK  111  A    between atoms: _255  and  _258
REMARK  112  A    between atoms: _258  and  _259
REMARK  113  A    between atoms: _262  and  _264
REMARK  114  A    between atoms: _264  and  _265
REMARK  115  A    between atoms: _264  and  _267
REMARK  116  A    between atoms: _267  and  _268
REMARK  117  A    between atoms: _271  and  _273
REMARK  118  A    between atoms: _273  and  _274
REMARK  119  A    between atoms: _273  and  _276
REMARK  120  A    between atoms: _276  and  _277
REMARK  121  A    between atoms: _280  and  _282
REMARK  122  A    between atoms: _282  and  _283
REMARK  123  A    between atoms: _282  and  _285
REMARK  124  A    between atoms: _285  and  _286
REMARK  125  A    between atoms: _286  and  _287
REMARK  126  A    between atoms: _289  and  _291
REMARK  127  A    between atoms: _291  and  _292
REMARK  128  A    between atoms: _291  and  _294
REMARK  129  A    between atoms: _294  and  _295
REMARK  130  A    between atoms: _301  and  _303
REMARK  131  A    between atoms: _303  and  _304
REMARK  132  A    between atoms: _303  and  _306
REMARK  133  A    between atoms: _308  and  _310
REMARK  134  A    between atoms: _310  and  _311
REMARK  135  A    between atoms: _314  and  _316
REMARK  136  A    between atoms: _316  and  _317
REMARK  137  A    between atoms: _319  and  _321
REMARK  138  A    between atoms: _321  and  _322
REMARK  139  A    between atoms: _321  and  _324
REMARK  140  A    between atoms: _324  and  _325
REMARK  141  A    between atoms: _328  and  _330
REMARK  142  A    between atoms: _330  and  _331
REMARK  143  A    between atoms: _334  and  _336
REMARK  144  A    between atoms: _336  and  _337
REMARK  145  A    between atoms: _336  and  _339
REMARK  146  A    between atoms: _339  and  _340
REMARK  147  A    between atoms: _340  and  _463
REMARK  148  A    between atoms: _341  and  _343
REMARK  149  A    between atoms: _343  and  _344
REMARK  150  A    between atoms: _343  and  _346
REMARK  151  A    between atoms: _346  and  _347
REMARK  152  A    between atoms: _347  and  _348
REMARK  153  A    between atoms: _353  and  _355
REMARK  154  A    between atoms: _355  and  _356
REMARK  155  A    between atoms: _358  and  _360
REMARK  156  A    between atoms: _360  and  _361
REMARK  157  A    between atoms: _360  and  _363
REMARK  158  A    between atoms: _363  and  _364
REMARK  159  A    between atoms: _367  and  _369
REMARK  160  A    between atoms: _369  and  _370
REMARK  161  A    between atoms: _369  and  _372
REMARK  162  A    between atoms: _372  and  _373
REMARK  163  A    between atoms: _375  and  _377
REMARK  164  A    between atoms: _377  and  _378
REMARK  165  A    between atoms: _380  and  _382
REMARK  166  A    between atoms: _382  and  _383
REMARK  167  A    between atoms: _385  and  _387
REMARK  168  A    between atoms: _387  and  _388
REMARK  169  A    between atoms: _387  and  _390
REMARK  170  A    between atoms: _390  and  _391
REMARK  171  A    between atoms: _396  and  _398
REMARK  172  A    between atoms: _398  and  _399
REMARK  173  A    between atoms: _398  and  _401
REMARK  174  A    between atoms: _401  and  _402
REMARK  175  A    between atoms: _405  and  _407
REMARK  176  A    between atoms: _407  and  _408
REMARK  177  A    between atoms: _407  and  _410
REMARK  178  A    between atoms: _413  and  _415
REMARK  179  A    between atoms: _415  and  _416
REMARK  180  A    between atoms: _415  and  _418
REMARK  181  A    between atoms: _418  and  _419
REMARK  182  A    between atoms: _421  and  _423
REMARK  183  A    between atoms: _423  and  _424
REMARK  184  A    between atoms: _423  and  _426
REMARK  185  A    between atoms: _426  and  _427
REMARK  186  A    between atoms: _437  and  _439
REMARK  187  A    between atoms: _439  and  _440
REMARK  188  A    between atoms: _442  and  _444
REMARK  189  A    between atoms: _444  and  _445
REMARK  190  A    between atoms: _444  and  _447
REMARK  191  A    between atoms: _447  and  _448
REMARK  192  A    between atoms: _448  and  _449
REMARK  193  A    between atoms: _452  and  _454
REMARK  194  A    between atoms: _454  and  _455
REMARK  195  A    between atoms: _457  and  _459
REMARK  196  A    between atoms: _459  and  _460
REMARK  197  A    between atoms: _459  and  _462
REMARK  198  A    between atoms: _462  and  _463
REMARK  199  A    between atoms: _464  and  _466
REMARK  200  A    between atoms: _466  and  _467
REMARK  201  A    between atoms: _470  and  _472
REMARK  202  A    between atoms: _472  and  _473
REMARK  203  A    between atoms: _472  and  _475
REMARK  204  A    between atoms: _475  and  _476
REMARK  205  A    between atoms: _476  and  _477
REMARK  206  A    between atoms: _477  and  _478
REMARK  207  A    between atoms: _487  and  _489
REMARK  208  A    between atoms: _489  and  _490
REMARK  209  A    between atoms: _489  and  _492
REMARK  210  A    between atoms: _492  and  _493
REMARK  211  A    between atoms: _498  and  _499
REMARK  212  A    between atoms: _501  and  _503
REMARK  213  A    between atoms: _503  and  _504
REMARK  214  A    between atoms: _506  and  _508
REMARK  215  A    between atoms: _508  and  _509
REMARK  216  A    between atoms: _508  and  _511
REMARK  217  A    between atoms: _511  and  _512
REMARK  218  A    between atoms: _515  and  _517
REMARK  219  A    between atoms: _517  and  _518
REMARK  220  A    between atoms: _517  and  _520
REMARK  221  A    between atoms: _520  and  _521
REMARK  222  A    between atoms: _526  and  _527
REMARK  223  A    between atoms: _529  and  _531
REMARK  224  A    between atoms: _531  and  _532
REMARK  225  A    between atoms: _531  and  _534
REMARK  226  A    between atoms: _534  and  _535
REMARK                            x       y       z     vdW  Elec       q    Type
REMARK                         _______ _______ _______ _____ _____    ______ ____
ROOT
ATOM      1  O   HOH     1      13.340  55.167   3.086  0.00  0.00    +0.000 OA
ENDROOT
TORSDOF 0
REMARK  Name = ../refined-set-2016/2xc0/2xc0_pocket.pdb
REMARK  226 active torsions:
REMARK  status: ('A' for Active; 'I' for Inactive)
REMARK    1  A    between atoms: _1  and  _5
REMARK    2  A    between atoms: _5  and  _6
REMARK    3  A    between atoms: _5  and  _8
REMARK    4  A    between atoms: _8  and  _9
REMARK    5  A    between atoms: _12  and  _14
REMARK    6  A    between atoms: _14  and  _15
REMARK    7  A    between atoms: _14  and  _17
REMARK    8  A    between atoms: _20  and  _22
REMARK    9  A    between atoms: _22  and  _23
REMARK   10  A    between atoms: _22  and  _25
REMARK   11  A    between atoms: _25  and  _26
REMARK   12  A    between atoms: _26  and  _55
REMARK   13  A    between atoms: _27  and  _29
REMARK   14  A    between atoms: _29  and  _30
REMARK   15  A    between atoms: _32  and  _34
REMARK   16  A    between atoms: _34  and  _35
REMARK   17  A    between atoms: _38  and  _40
REMARK   18  A    between atoms: _40  and  _41
REMARK   19  A    between atoms: _40  and  _43
REMARK   20  A    between atoms: _43  and  _44
REMARK   21  A    between atoms: _49  and  _51
REMARK   22  A    between atoms: _51  and  _52
REMARK   23  A    between atoms: _51  and  _54
REMARK   24  A    between atoms: _54  and  _55
REMARK   25  A    between atoms: _56  and  _58
REMARK   26  A    between atoms: _58  and  _59
REMARK   27  A    between atoms: _58  and  _61
REMARK   28  A    between atoms: _61  and  _62
REMARK   29  A    between atoms: _62  and  _63
REMARK   30  A    between atoms: _68  and  _70
REMARK   31  A    between atoms: _70  and  _71
REMARK   32  A    between atoms: _70  and  _73
REMARK   33  A    between atoms: _73  and  _74
REMARK   34  A    between atoms: _80  and  _82
REMARK   35  A    between atoms: _82  and  _83
REMARK   36  A    between atoms: _82  and  _85
REMARK   37  A    between atoms: _85  and  _86
REMARK   38  A    between atoms: _89  and  _91
REMARK   39  A    between atoms: _91  and  _92
REMARK   40  A    between atoms: _91  and  _94
REMARK   41  A    between atoms: _94  and  _95
REMARK   42  A    between atoms: _95  and  _96
REMARK   43  A    between atoms: _96  and  _97
REMARK   44  A    between atoms: _97  and  _98
REMARK   45  A    between atoms: _102  and  _104
REMARK   46  A    between atoms: _104  and  _105
REMARK   47  A    between atoms: _104  and  _107
REMARK   48  A    between atoms: _107  and  _108
REMARK   49  A    between atoms: _108  and  _109
REMARK   50  A    between atoms: _112  and  _114
REMARK   51  A    between atoms: _114  and  _115
REMARK   52  A    between atoms: _114  and  _117
REMARK   53  A    between atoms: _117  and  _118
REMARK   54  A    between atoms: _121  and  _123
REMARK   55  A    between atoms: _123  and  _124
REMARK   56  A    between atoms: _123  and  _126
REMARK   57  A    between atoms: _126  and  _127
REMARK   58  A    between atoms: _132  and  _133
REMARK   59  A    between atoms: _135  and  _137
REMARK   60  A    between atoms: _137  and  _138
REMARK   61  A    between atoms: _137  and  _140
REMARK   62  A    between atoms: _140  and  _141
REMARK   63  A    between atoms: _144  and  _146
REMARK   64  A    between atoms: _146  and  _147
REMARK   65  A    between atoms: _146  and  _149
REMARK   66  A    between atoms: _149  and  _150
REMARK   67  A    between atoms: _153  and  _155
REMARK   68  A    between atoms: _155  and  _156
REMARK   69  A    between atoms: _155  and  _158
REMARK   70  A    between atoms: _161  and  _163
REMARK   71  A    between atoms: _163  and  _164
REMARK   72  A    between atoms: _163  and  _166
REMARK   73  A    between atoms: _166  and  _167
REMARK   74  A    between atoms: _167  and  _168
REMARK   75  A    between atoms: _168  and  _169
REMARK   76  A    between atoms: _178  and  _180
REMARK   77  A    between atoms: _180  and  _181
REMARK   78  A    between atoms: _180  and  _183
REMARK   79  A    between atoms: _183  and  _184
REMARK   80  A    between atoms: _189  and  _191
REMARK   81  A    between atoms: _191  and  _192
REMARK   82  A    between atoms: _191  and  _194
REMARK   83  A    between atoms: _194  and  _195
REMARK   84  A    between atoms: _195  and  _196
REMARK   85  A    between atoms: _199  and  _201
REMARK   86  A    between atoms: _201  and  _202
REMARK   87  A    between atoms: _201  and  _204
REMARK   88  A    between atoms: _204  and  _205
REMARK   89  A    between atoms: _205  and  _206
REMARK   90  A    between atoms: _206  and  _207
REMARK   91  A    between atoms: _207  and  _208
REMARK   92  A    between atoms: _212  and  _214
REMARK   93  A    between atoms: _214  and  _215
REMARK   94  A    between atoms: _217  and  _219
REMARK   95  A    between atoms: _219  and  _220
REMARK   96  A    between atoms: _219  and  _222
REMARK   97  A    between atoms: _225  and  _227
REMARK   98  A    between atoms: _227  and  _228
REMARK   99  A    between atoms: _227  and  _230
REMARK  100  A    between atoms: _230  and  _231
REMARK  101  A    between atoms: _233  and  _235
REMARK  102  A    between atoms: _235  and  _236
REMARK  103  A    between atoms: _235  and  _238
REMARK  104  A    between atoms: _238  and  _239
REMARK  105  A    between atoms: _241  and  _243
REMARK  106  A    between atoms: _243  and  _244
REMARK  107  A    between atoms: _243  and  _246
REMARK  108  A    between atoms: _246  and  _247
REMARK  109  A    between atoms: _253  and  _255
REMARK  110  A    between atoms: _255  and  _256
REMARK  111  A    between atoms: _255  and  _258
REMARK  112  A    between atoms: _258  and  _259
REMARK  113  A    between atoms: _262  and  _264
REMARK  114  A    between atoms: _264  and  _265
REMARK  115  A    between atoms: _264  and  _267
REMARK  116  A    between atoms: _267  and  _268
REMARK  117  A    between atoms: _271  and  _273
REMARK  118  A    between atoms: _273  and  _274
REMARK  119  A    between atoms: _273  and  _276
REMARK  120  A    between atoms: _276  and  _277
REMARK  121  A    between atoms: _280  and  _282
REMARK  122  A    between atoms: _282  and  _283
REMARK  123  A    between atoms: _282  and  _285
REMARK  124  A    between atoms: _285  and  _286
REMARK  125  A    between atoms: _286  and  _287
REMARK  126  A    between atoms: _289  and  _291
REMARK  127  A    between atoms: _291  and  _292
REMARK  128  A    between atoms: _291  and  _294
REMARK  129  A    between atoms: _294  and  _295
REMARK  130  A    between atoms: _301  and  _303
REMARK  131  A    between atoms: _303  and  _304
REMARK  132  A    between atoms: _303  and  _306
REMARK  133  A    between atoms: _308  and  _310
REMARK  134  A    between atoms: _310  and  _311
REMARK  135  A    between atoms: _314  and  _316
REMARK  136  A    between atoms: _316  and  _317
REMARK  137  A    between atoms: _319  and  _321
REMARK  138  A    between atoms: _321  and  _322
REMARK  139  A    between atoms: _321  and  _324
REMARK  140  A    between atoms: _324  and  _325
REMARK  141  A    between atoms: _328  and  _330
REMARK  142  A    between atoms: _330  and  _331
REMARK  143  A    between atoms: _334  and  _336
REMARK  144  A    between atoms: _336  and  _337
REMARK  145  A    between atoms: _336  and  _339
REMARK  146  A    between atoms: _339  and  _340
REMARK  147  A    between atoms: _340  and  _463
REMARK  148  A    between atoms: _341  and  _343
REMARK  149  A    between atoms: _343  and  _344
REMARK  150  A    between atoms: _343  and  _346
REMARK  151  A    between atoms: _346  and  _347
REMARK  152  A    between atoms: _347  and  _348
REMARK  153  A    between atoms: _353  and  _355
REMARK  154  A    between atoms: _355  and  _356
REMARK  155  A    between atoms: _358  and  _360
REMARK  156  A    between atoms: _360  and  _361
REMARK  157  A    between atoms: _360  and  _363
REMARK  158  A    between atoms: _363  and  _364
REMARK  159  A    between atoms: _367  and  _369
REMARK  160  A    between atoms: _369  and  _370
REMARK  161  A    between atoms: _369  and  _372
REMARK  162  A    between atoms: _372  and  _373
REMARK  163  A    between atoms: _375  and  _377
REMARK  164  A    between atoms: _377  and  _378
REMARK  165  A    between atoms: _380  and  _382
REMARK  166  A    between atoms: _382  and  _383
REMARK  167  A    between atoms: _385  and  _387
REMARK  168  A    between atoms: _387  and  _388
REMARK  169  A    between atoms: _387  and  _390
REMARK  170  A    between atoms: _390  and  _391
REMARK  171  A    between atoms: _396  and  _398
REMARK  172  A    between atoms: _398  and  _399
REMARK  173  A    between atoms: _398  and  _401
REMARK  174  A    between atoms: _401  and  _402
REMARK  175  A    between atoms: _405  and  _407
REMARK  176  A    between atoms: _407  and  _408
REMARK  177  A    between atoms: _407  and  _410
REMARK  178  A    between atoms: _413  and  _415
REMARK  179  A    between atoms: _415  and  _416
REMARK  180  A    between atoms: _415  and  _418
REMARK  181  A    between atoms: _418  and  _419
REMARK  182  A    between atoms: _421  and  _423
REMARK  183  A    between atoms: _423  and  _424
REMARK  184  A    between atoms: _423  and  _426
REMARK  185  A    between atoms: _426  and  _427
REMARK  186  A    between atoms: _437  and  _439
REMARK  187  A    between atoms: _439  and  _440
REMARK  188  A    between atoms: _442  and  _444
REMARK  189  A    between atoms: _444  and  _445
REMARK  190  A    between atoms: _444  and  _447
REMARK  191  A    between atoms: _447  and  _448
REMARK  192  A    between atoms: _448  and  _449
REMARK  193  A    between atoms: _452  and  _454
REMARK  194  A    between atoms: _454  and  _455
REMARK  195  A    between atoms: _457  and  _459
REMARK  196  A    between atoms: _459  and  _460
REMARK  197  A    between atoms: _459  and  _462
REMARK  198  A    between atoms: _462  and  _463
REMARK  199  A    between atoms: _464  and  _466
REMARK  200  A    between atoms: _466  and  _467
REMARK  201  A    between atoms: _470  and  _472
REMARK  202  A    between atoms: _472  and  _473
REMARK  203  A    between atoms: _472  and  _475
REMARK  204  A    between atoms: _475  and  _476
REMARK  205  A    between atoms: _476  and  _477
REMARK  206  A    between atoms: _477  and  _478
REMARK  207  A    between atoms: _487  and  _489
REMARK  208  A    between atoms: _489  and  _490
REMARK  209  A    between atoms: _489  and  _492
REMARK  210  A    between atoms: _492  and  _493
REMARK  211  A    between atoms: _498  and  _499
REMARK  212  A    between atoms: _501  and  _503
REMARK  213  A    between atoms: _503  and  _504
REMARK  214  A    between atoms: _506  and  _508
REMARK  215  A    between atoms: _508  and  _509
REMARK  216  A    between atoms: _508  and  _511
REMARK  217  A    between atoms: _511  and  _512
REMARK  218  A    between atoms: _515  and  _517
REMARK  219  A    between atoms: _517  and  _518
REMARK  220  A    between atoms: _517  and  _520
REMARK  221  A    between atoms: _520  and  _521
REMARK  222  A    between atoms: _526  and  _527
REMARK  223  A    between atoms: _529  and  _531
REMARK  224  A    between atoms: _531  and  _532
REMARK  225  A    between atoms: _531  and  _534
REMARK  226  A    between atoms: _534  and  _535
REMARK                            x       y       z     vdW  Elec       q    Type
REMARK                         _______ _______ _______ _____ _____    ______ ____
ROOT
ATOM      1  O   HOH     1      10.608  62.814  -1.679  0.00  0.00    +0.000 OA
ENDROOT
TORSDOF 0
REMARK  Name = ../refined-set-2016/2xc0/2xc0_pocket.pdb
REMARK  226 active torsions:
REMARK  status: ('A' for Active; 'I' for Inactive)
REMARK    1  A    between atoms: _1  and  _5
REMARK    2  A    between atoms: _5  and  _6
REMARK    3  A    between atoms: _5  and  _8
REMARK    4  A    between atoms: _8  and  _9
REMARK    5  A    between atoms: _12  and  _14
REMARK    6  A    between atoms: _14  and  _15
REMARK    7  A    between atoms: _14  and  _17
REMARK    8  A    between atoms: _20  and  _22
REMARK    9  A    between atoms: _22  and  _23
REMARK   10  A    between atoms: _22  and  _25
REMARK   11  A    between atoms: _25  and  _26
REMARK   12  A    between atoms: _26  and  _55
REMARK   13  A    between atoms: _27  and  _29
REMARK   14  A    between atoms: _29  and  _30
REMARK   15  A    between atoms: _32  and  _34
REMARK   16  A    between atoms: _34  and  _35
REMARK   17  A    between atoms: _38  and  _40
REMARK   18  A    between atoms: _40  and  _41
REMARK   19  A    between atoms: _40  and  _43
REMARK   20  A    between atoms: _43  and  _44
REMARK   21  A    between atoms: _49  and  _51
REMARK   22  A    between atoms: _51  and  _52
REMARK   23  A    between atoms: _51  and  _54
REMARK   24  A    between atoms: _54  and  _55
REMARK   25  A    between atoms: _56  and  _58
REMARK   26  A    between atoms: _58  and  _59
REMARK   27  A    between atoms: _58  and  _61
REMARK   28  A    between atoms: _61  and  _62
REMARK   29  A    between atoms: _62  and  _63
REMARK   30  A    between atoms: _68  and  _70
REMARK   31  A    between atoms: _70  and  _71
REMARK   32  A    between atoms: _70  and  _73
REMARK   33  A    between atoms: _73  and  _74
REMARK   34  A    between atoms: _80  and  _82
REMARK   35  A    between atoms: _82  and  _83
REMARK   36  A    between atoms: _82  and  _85
REMARK   37  A    between atoms: _85  and  _86
REMARK   38  A    between atoms: _89  and  _91
REMARK   39  A    between atoms: _91  and  _92
REMARK   40  A    between atoms: _91  and  _94
REMARK   41  A    between atoms: _94  and  _95
REMARK   42  A    between atoms: _95  and  _96
REMARK   43  A    between atoms: _96  and  _97
REMARK   44  A    between atoms: _97  and  _98
REMARK   45  A    between atoms: _102  and  _104
REMARK   46  A    between atoms: _104  and  _105
REMARK   47  A    between atoms: _104  and  _107
REMARK   48  A    between atoms: _107  and  _108
REMARK   49  A    between atoms: _108  and  _109
REMARK   50  A    between atoms: _112  and  _114
REMARK   51  A    between atoms: _114  and  _115
REMARK   52  A    between atoms: _114  and  _117
REMARK   53  A    between atoms: _117  and  _118
REMARK   54  A    between atoms: _121  and  _123
REMARK   55  A    between atoms: _123  and  _124
REMARK   56  A    between atoms: _123  and  _126
REMARK   57  A    between atoms: _126  and  _127
REMARK   58  A    between atoms: _132  and  _133
REMARK   59  A    between atoms: _135  and  _137
REMARK   60  A    between atoms: _137  and  _138
REMARK   61  A    between atoms: _137  and  _140
REMARK   62  A    between atoms: _140  and  _141
REMARK   63  A    between atoms: _144  and  _146
REMARK   64  A    between atoms: _146  and  _147
REMARK   65  A    between atoms: _146  and  _149
REMARK   66  A    between atoms: _149  and  _150
REMARK   67  A    between atoms: _153  and  _155
REMARK   68  A    between atoms: _155  and  _156
REMARK   69  A    between atoms: _155  and  _158
REMARK   70  A    between atoms: _161  and  _163
REMARK   71  A    between atoms: _163  and  _164
REMARK   72  A    between atoms: _163  and  _166
REMARK   73  A    between atoms: _166  and  _167
REMARK   74  A    between atoms: _167  and  _168
REMARK   75  A    between atoms: _168  and  _169
REMARK   76  A    between atoms: _178  and  _180
REMARK   77  A    between atoms: _180  and  _181
REMARK   78  A    between atoms: _180  and  _183
REMARK   79  A    between atoms: _183  and  _184
REMARK   80  A    between atoms: _189  and  _191
REMARK   81  A    between atoms: _191  and  _192
REMARK   82  A    between atoms: _191  and  _194
REMARK   83  A    between atoms: _194  and  _195
REMARK   84  A    between atoms: _195  and  _196
REMARK   85  A    between atoms: _199  and  _201
REMARK   86  A    between atoms: _201  and  _202
REMARK   87  A    between atoms: _201  and  _204
REMARK   88  A    between atoms: _204  and  _205
REMARK   89  A    between atoms: _205  and  _206
REMARK   90  A    between atoms: _206  and  _207
REMARK   91  A    between atoms: _207  and  _208
REMARK   92  A    between atoms: _212  and  _214
REMARK   93  A    between atoms: _214  and  _215
REMARK   94  A    between atoms: _217  and  _219
REMARK   95  A    between atoms: _219  and  _220
REMARK   96  A    between atoms: _219  and  _222
REMARK   97  A    between atoms: _225  and  _227
REMARK   98  A    between atoms: _227  and  _228
REMARK   99  A    between atoms: _227  and  _230
REMARK  100  A    between atoms: _230  and  _231
REMARK  101  A    between atoms: _233  and  _235
REMARK  102  A    between atoms: _235  and  _236
REMARK  103  A    between atoms: _235  and  _238
REMARK  104  A    between atoms: _238  and  _239
REMARK  105  A    between atoms: _241  and  _243
REMARK  106  A    between atoms: _243  and  _244
REMARK  107  A    between atoms: _243  and  _246
REMARK  108  A    between atoms: _246  and  _247
REMARK  109  A    between atoms: _253  and  _255
REMARK  110  A    between atoms: _255  and  _256
REMARK  111  A    between atoms: _255  and  _258
REMARK  112  A    between atoms: _258  and  _259
REMARK  113  A    between atoms: _262  and  _264
REMARK  114  A    between atoms: _264  and  _265
REMARK  115  A    between atoms: _264  and  _267
REMARK  116  A    between atoms: _267  and  _268
REMARK  117  A    between atoms: _271  and  _273
REMARK  118  A    between atoms: _273  and  _274
REMARK  119  A    between atoms: _273  and  _276
REMARK  120  A    between atoms: _276  and  _277
REMARK  121  A    between atoms: _280  and  _282
REMARK  122  A    between atoms: _282  and  _283
REMARK  123  A    between atoms: _282  and  _285
REMARK  124  A    between atoms: _285  and  _286
REMARK  125  A    between atoms: _286  and  _287
REMARK  126  A    between atoms: _289  and  _291
REMARK  127  A    between atoms: _291  and  _292
REMARK  128  A    between atoms: _291  and  _294
REMARK  129  A    between atoms: _294  and  _295
REMARK  130  A    between atoms: _301  and  _303
REMARK  131  A    between atoms: _303  and  _304
REMARK  132  A    between atoms: _303  and  _306
REMARK  133  A    between atoms: _308  and  _310
REMARK  134  A    between atoms: _310  and  _311
REMARK  135  A    between atoms: _314  and  _316
REMARK  136  A    between atoms: _316  and  _317
REMARK  137  A    between atoms: _319  and  _321
REMARK  138  A    between atoms: _321  and  _322
REMARK  139  A    between atoms: _321  and  _324
REMARK  140  A    between atoms: _324  and  _325
REMARK  141  A    between atoms: _328  and  _330
REMARK  142  A    between atoms: _330  and  _331
REMARK  143  A    between atoms: _334  and  _336
REMARK  144  A    between atoms: _336  and  _337
REMARK  145  A    between atoms: _336  and  _339
REMARK  146  A    between atoms: _339  and  _340
REMARK  147  A    between atoms: _340  and  _463
REMARK  148  A    between atoms: _341  and  _343
REMARK  149  A    between atoms: _343  and  _344
REMARK  150  A    between atoms: _343  and  _346
REMARK  151  A    between atoms: _346  and  _347
REMARK  152  A    between atoms: _347  and  _348
REMARK  153  A    between atoms: _353  and  _355
REMARK  154  A    between atoms: _355  and  _356
REMARK  155  A    between atoms: _358  and  _360
REMARK  156  A    between atoms: _360  and  _361
REMARK  157  A    between atoms: _360  and  _363
REMARK  158  A    between atoms: _363  and  _364
REMARK  159  A    between atoms: _367  and  _369
REMARK  160  A    between atoms: _369  and  _370
REMARK  161  A    between atoms: _369  and  _372
REMARK  162  A    between atoms: _372  and  _373
REMARK  163  A    between atoms: _375  and  _377
REMARK  164  A    between atoms: _377  and  _378
REMARK  165  A    between atoms: _380  and  _382
REMARK  166  A    between atoms: _382  and  _383
REMARK  167  A    between atoms: _385  and  _387
REMARK  168  A    between atoms: _387  and  _388
REMARK  169  A    between atoms: _387  and  _390
REMARK  170  A    between atoms: _390  and  _391
REMARK  171  A    between atoms: _396  and  _398
REMARK  172  A    between atoms: _398  and  _399
REMARK  173  A    between atoms: _398  and  _401
REMARK  174  A    between atoms: _401  and  _402
REMARK  175  A    between atoms: _405  and  _407
REMARK  176  A    between atoms: _407  and  _408
REMARK  177  A    between atoms: _407  and  _410
REMARK  178  A    between atoms: _413  and  _415
REMARK  179  A    between atoms: _415  and  _416
REMARK  180  A    between atoms: _415  and  _418
REMARK  181  A    between atoms: _418  and  _419
REMARK  182  A    between atoms: _421  and  _423
REMARK  183  A    between atoms: _423  and  _424
REMARK  184  A    between atoms: _423  and  _426
REMARK  185  A    between atoms: _426  and  _427
REMARK  186  A    between atoms: _437  and  _439
REMARK  187  A    between atoms: _439  and  _440
REMARK  188  A    between atoms: _442  and  _444
REMARK  189  A    between atoms: _444  and  _445
REMARK  190  A    between atoms: _444  and  _447
REMARK  191  A    between atoms: _447  and  _448
REMARK  192  A    between atoms: _448  and  _449
REMARK  193  A    between atoms: _452  and  _454
REMARK  194  A    between atoms: _454  and  _455
REMARK  195  A    between atoms: _457  and  _459
REMARK  196  A    between atoms: _459  and  _460
REMARK  197  A    between atoms: _459  and  _462
REMARK  198  A    between atoms: _462  and  _463
REMARK  199  A    between atoms: _464  and  _466
REMARK  200  A    between atoms: _466  and  _467
REMARK  201  A    between atoms: _470  and  _472
REMARK  202  A    between atoms: _472  and  _473
REMARK  203  A    between atoms: _472  and  _475
REMARK  204  A    between atoms: _475  and  _476
REMARK  205  A    between atoms: _476  and  _477
REMARK  206  A    between atoms: _477  and  _478
REMARK  207  A    between atoms: _487  and  _489
REMARK  208  A    between atoms: _489  and  _490
REMARK  209  A    between atoms: _489  and  _492
REMARK  210  A    between atoms: _492  and  _493
REMARK  211  A    between atoms: _498  and  _499
REMARK  212  A    between atoms: _501  and  _503
REMARK  213  A    between atoms: _503  and  _504
REMARK  214  A    between atoms: _506  and  _508
REMARK  215  A    between atoms: _508  and  _509
REMARK  216  A    between atoms: _508  and  _511
REMARK  217  A    between atoms: _511  and  _512
REMARK  218  A    between atoms: _515  and  _517
REMARK  219  A    between atoms: _517  and  _518
REMARK  220  A    between atoms: _517  and  _520
REMARK  221  A    between atoms: _520  and  _521
REMARK  222  A    between atoms: _526  and  _527
REMARK  223  A    between atoms: _529  and  _531
REMARK  224  A    between atoms: _531  and  _532
REMARK  225  A    between atoms: _531  and  _534
REMARK  226  A    between atoms: _534  and  _535
REMARK                            x       y       z     vdW  Elec       q    Type
REMARK                         _______ _______ _______ _____ _____    ______ ____
ROOT
ATOM      1  O   HOH     1       7.038  61.442  -2.867  0.00  0.00    +0.000 OA
ENDROOT
TORSDOF 0
REMARK  Name = ../refined-set-2016/2xc0/2xc0_pocket.pdb
REMARK  226 active torsions:
REMARK  status: ('A' for Active; 'I' for Inactive)
REMARK    1  A    between atoms: _1  and  _5
REMARK    2  A    between atoms: _5  and  _6
REMARK    3  A    between atoms: _5  and  _8
REMARK    4  A    between atoms: _8  and  _9
REMARK    5  A    between atoms: _12  and  _14
REMARK    6  A    between atoms: _14  and  _15
REMARK    7  A    between atoms: _14  and  _17
REMARK    8  A    between atoms: _20  and  _22
REMARK    9  A    between atoms: _22  and  _23
REMARK   10  A    between atoms: _22  and  _25
REMARK   11  A    between atoms: _25  and  _26
REMARK   12  A    between atoms: _26  and  _55
REMARK   13  A    between atoms: _27  and  _29
REMARK   14  A    between atoms: _29  and  _30
REMARK   15  A    between atoms: _32  and  _34
REMARK   16  A    between atoms: _34  and  _35
REMARK   17  A    between atoms: _38  and  _40
REMARK   18  A    between atoms: _40  and  _41
REMARK   19  A    between atoms: _40  and  _43
REMARK   20  A    between atoms: _43  and  _44
REMARK   21  A    between atoms: _49  and  _51
REMARK   22  A    between atoms: _51  and  _52
REMARK   23  A    between atoms: _51  and  _54
REMARK   24  A    between atoms: _54  and  _55
REMARK   25  A    between atoms: _56  and  _58
REMARK   26  A    between atoms: _58  and  _59
REMARK   27  A    between atoms: _58  and  _61
REMARK   28  A    between atoms: _61  and  _62
REMARK   29  A    between atoms: _62  and  _63
REMARK   30  A    between atoms: _68  and  _70
REMARK   31  A    between atoms: _70  and  _71
REMARK   32  A    between atoms: _70  and  _73
REMARK   33  A    between atoms: _73  and  _74
REMARK   34  A    between atoms: _80  and  _82
REMARK   35  A    between atoms: _82  and  _83
REMARK   36  A    between atoms: _82  and  _85
REMARK   37  A    between atoms: _85  and  _86
REMARK   38  A    between atoms: _89  and  _91
REMARK   39  A    between atoms: _91  and  _92
REMARK   40  A    between atoms: _91  and  _94
REMARK   41  A    between atoms: _94  and  _95
REMARK   42  A    between atoms: _95  and  _96
REMARK   43  A    between atoms: _96  and  _97
REMARK   44  A    between atoms: _97  and  _98
REMARK   45  A    between atoms: _102  and  _104
REMARK   46  A    between atoms: _104  and  _105
REMARK   47  A    between atoms: _104  and  _107
REMARK   48  A    between atoms: _107  and  _108
REMARK   49  A    between atoms: _108  and  _109
REMARK   50  A    between atoms: _112  and  _114
REMARK   51  A    between atoms: _114  and  _115
REMARK   52  A    between atoms: _114  and  _117
REMARK   53  A    between atoms: _117  and  _118
REMARK   54  A    between atoms: _121  and  _123
REMARK   55  A    between atoms: _123  and  _124
REMARK   56  A    between atoms: _123  and  _126
REMARK   57  A    between atoms: _126  and  _127
REMARK   58  A    between atoms: _132  and  _133
REMARK   59  A    between atoms: _135  and  _137
REMARK   60  A    between atoms: _137  and  _138
REMARK   61  A    between atoms: _137  and  _140
REMARK   62  A    between atoms: _140  and  _141
REMARK   63  A    between atoms: _144  and  _146
REMARK   64  A    between atoms: _146  and  _147
REMARK   65  A    between atoms: _146  and  _149
REMARK   66  A    between atoms: _149  and  _150
REMARK   67  A    between atoms: _153  and  _155
REMARK   68  A    between atoms: _155  and  _156
REMARK   69  A    between atoms: _155  and  _158
REMARK   70  A    between atoms: _161  and  _163
REMARK   71  A    between atoms: _163  and  _164
REMARK   72  A    between atoms: _163  and  _166
REMARK   73  A    between atoms: _166  and  _167
REMARK   74  A    between atoms: _167  and  _168
REMARK   75  A    between atoms: _168  and  _169
REMARK   76  A    between atoms: _178  and  _180
REMARK   77  A    between atoms: _180  and  _181
REMARK   78  A    between atoms: _180  and  _183
REMARK   79  A    between atoms: _183  and  _184
REMARK   80  A    between atoms: _189  and  _191
REMARK   81  A    between atoms: _191  and  _192
REMARK   82  A    between atoms: _191  and  _194
REMARK   83  A    between atoms: _194  and  _195
REMARK   84  A    between atoms: _195  and  _196
REMARK   85  A    between atoms: _199  and  _201
REMARK   86  A    between atoms: _201  and  _202
REMARK   87  A    between atoms: _201  and  _204
REMARK   88  A    between atoms: _204  and  _205
REMARK   89  A    between atoms: _205  and  _206
REMARK   90  A    between atoms: _206  and  _207
REMARK   91  A    between atoms: _207  and  _208
REMARK   92  A    between atoms: _212  and  _214
REMARK   93  A    between atoms: _214  and  _215
REMARK   94  A    between atoms: _217  and  _219
REMARK   95  A    between atoms: _219  and  _220
REMARK   96  A    between atoms: _219  and  _222
REMARK   97  A    between atoms: _225  and  _227
REMARK   98  A    between atoms: _227  and  _228
REMARK   99  A    between atoms: _227  and  _230
REMARK  100  A    between atoms: _230  and  _231
REMARK  101  A    between atoms: _233  and  _235
REMARK  102  A    between atoms: _235  and  _236
REMARK  103  A    between atoms: _235  and  _238
REMARK  104  A    between atoms: _238  and  _239
REMARK  105  A    between atoms: _241  and  _243
REMARK  106  A    between atoms: _243  and  _244
REMARK  107  A    between atoms: _243  and  _246
REMARK  108  A    between atoms: _246  and  _247
REMARK  109  A    between atoms: _253  and  _255
REMARK  110  A    between atoms: _255  and  _256
REMARK  111  A    between atoms: _255  and  _258
REMARK  112  A    between atoms: _258  and  _259
REMARK  113  A    between atoms: _262  and  _264
REMARK  114  A    between atoms: _264  and  _265
REMARK  115  A    between atoms: _264  and  _267
REMARK  116  A    between atoms: _267  and  _268
REMARK  117  A    between atoms: _271  and  _273
REMARK  118  A    between atoms: _273  and  _274
REMARK  119  A    between atoms: _273  and  _276
REMARK  120  A    between atoms: _276  and  _277
REMARK  121  A    between atoms: _280  and  _282
REMARK  122  A    between atoms: _282  and  _283
REMARK  123  A    between atoms: _282  and  _285
REMARK  124  A    between atoms: _285  and  _286
REMARK  125  A    between atoms: _286  and  _287
REMARK  126  A    between atoms: _289  and  _291
REMARK  127  A    between atoms: _291  and  _292
REMARK  128  A    between atoms: _291  and  _294
REMARK  129  A    between atoms: _294  and  _295
REMARK  130  A    between atoms: _301  and  _303
REMARK  131  A    between atoms: _303  and  _304
REMARK  132  A    between atoms: _303  and  _306
REMARK  133  A    between atoms: _308  and  _310
REMARK  134  A    between atoms: _310  and  _311
REMARK  135  A    between atoms: _314  and  _316
REMARK  136  A    between atoms: _316  and  _317
REMARK  137  A    between atoms: _319  and  _321
REMARK  138  A    between atoms: _321  and  _322
REMARK  139  A    between atoms: _321  and  _324
REMARK  140  A    between atoms: _324  and  _325
REMARK  141  A    between atoms: _328  and  _330
REMARK  142  A    between atoms: _330  and  _331
REMARK  143  A    between atoms: _334  and  _336
REMARK  144  A    between atoms: _336  and  _337
REMARK  145  A    between atoms: _336  and  _339
REMARK  146  A    between atoms: _339  and  _340
REMARK  147  A    between atoms: _340  and  _463
REMARK  148  A    between atoms: _341  and  _343
REMARK  149  A    between atoms: _343  and  _344
REMARK  150  A    between atoms: _343  and  _346
REMARK  151  A    between atoms: _346  and  _347
REMARK  152  A    between atoms: _347  and  _348
REMARK  153  A    between atoms: _353  and  _355
REMARK  154  A    between atoms: _355  and  _356
REMARK  155  A    between atoms: _358  and  _360
REMARK  156  A    between atoms: _360  and  _361
REMARK  157  A    between atoms: _360  and  _363
REMARK  158  A    between atoms: _363  and  _364
REMARK  159  A    between atoms: _367  and  _369
REMARK  160  A    between atoms: _369  and  _370
REMARK  161  A    between atoms: _369  and  _372
REMARK  162  A    between atoms: _372  and  _373
REMARK  163  A    between atoms: _375  and  _377
REMARK  164  A    between atoms: _377  and  _378
REMARK  165  A    between atoms: _380  and  _382
REMARK  166  A    between atoms: _382  and  _383
REMARK  167  A    between atoms: _385  and  _387
REMARK  168  A    between atoms: _387  and  _388
REMARK  169  A    between atoms: _387  and  _390
REMARK  170  A    between atoms: _390  and  _391
REMARK  171  A    between atoms: _396  and  _398
REMARK  172  A    between atoms: _398  and  _399
REMARK  173  A    between atoms: _398  and  _401
REMARK  174  A    between atoms: _401  and  _402
REMARK  175  A    between atoms: _405  and  _407
REMARK  176  A    between atoms: _407  and  _408
REMARK  177  A    between atoms: _407  and  _410
REMARK  178  A    between atoms: _413  and  _415
REMARK  179  A    between atoms: _415  and  _416
REMARK  180  A    between atoms: _415  and  _418
REMARK  181  A    between atoms: _418  and  _419
REMARK  182  A    between atoms: _421  and  _423
REMARK  183  A    between atoms: _423  and  _424
REMARK  184  A    between atoms: _423  and  _426
REMARK  185  A    between atoms: _426  and  _427
REMARK  186  A    between atoms: _437  and  _439
REMARK  187  A    between atoms: _439  and  _440
REMARK  188  A    between atoms: _442  and  _444
REMARK  189  A    between atoms: _444  and  _445
REMARK  190  A    between atoms: _444  and  _447
REMARK  191  A    between atoms: _447  and  _448
REMARK  192  A    between atoms: _448  and  _449
REMARK  193  A    between atoms: _452  and  _454
REMARK  194  A    between atoms: _454  and  _455
REMARK  195  A    between atoms: _457  and  _459
REMARK  196  A    between atoms: _459  and  _460
REMARK  197  A    between atoms: _459  and  _462
REMARK  198  A    between atoms: _462  and  _463
REMARK  199  A    between atoms: _464  and  _466
REMARK  200  A    between atoms: _466  and  _467
REMARK  201  A    between atoms: _470  and  _472
REMARK  202  A    between atoms: _472  and  _473
REMARK  203  A    between atoms: _472  and  _475
REMARK  204  A    between atoms: _475  and  _476
REMARK  205  A    between atoms: _476  and  _477
REMARK  206  A    between atoms: _477  and  _478
REMARK  207  A    between atoms: _487  and  _489
REMARK  208  A    between atoms: _489  and  _490
REMARK  209  A    between atoms: _489  and  _492
REMARK  210  A    between atoms: _492  and  _493
REMARK  211  A    between atoms: _498  and  _499
REMARK  212  A    between atoms: _501  and  _503
REMARK  213  A    between atoms: _503  and  _504
REMARK  214  A    between atoms: _506  and  _508
REMARK  215  A    between atoms: _508  and  _509
REMARK  216  A    between atoms: _508  and  _511
REMARK  217  A    between atoms: _511  and  _512
REMARK  218  A    between atoms: _515  and  _517
REMARK  219  A    between atoms: _517  and  _518
REMARK  220  A    between atoms: _517  and  _520
REMARK  221  A    between atoms: _520  and  _521
REMARK  222  A    between atoms: _526  and  _527
REMARK  223  A    between atoms: _529  and  _531
REMARK  224  A    between atoms: _531  and  _532
REMARK  225  A    between atoms: _531  and  _534
REMARK  226  A    between atoms: _534  and  _535
REMARK                            x       y       z     vdW  Elec       q    Type
REMARK                         _______ _______ _______ _____ _____    ______ ____
ROOT
ATOM      1  O   HOH     1      12.174  73.771   9.757  0.00  0.00    +0.000 OA
ENDROOT
TORSDOF 0
REMARK  Name = ../refined-set-2016/2xc0/2xc0_pocket.pdb
REMARK  226 active torsions:
REMARK  status: ('A' for Active; 'I' for Inactive)
REMARK    1  A    between atoms: _1  and  _5
REMARK    2  A    between atoms: _5  and  _6
REMARK    3  A    between atoms: _5  and  _8
REMARK    4  A    between atoms: _8  and  _9
REMARK    5  A    between atoms: _12  and  _14
REMARK    6  A    between atoms: _14  and  _15
REMARK    7  A    between atoms: _14  and  _17
REMARK    8  A    between atoms: _20  and  _22
REMARK    9  A    between atoms: _22  and  _23
REMARK   10  A    between atoms: _22  and  _25
REMARK   11  A    between atoms: _25  and  _26
REMARK   12  A    between atoms: _26  and  _55
REMARK   13  A    between atoms: _27  and  _29
REMARK   14  A    between atoms: _29  and  _30
REMARK   15  A    between atoms: _32  and  _34
REMARK   16  A    between atoms: _34  and  _35
REMARK   17  A    between atoms: _38  and  _40
REMARK   18  A    between atoms: _40  and  _41
REMARK   19  A    between atoms: _40  and  _43
REMARK   20  A    between atoms: _43  and  _44
REMARK   21  A    between atoms: _49  and  _51
REMARK   22  A    between atoms: _51  and  _52
REMARK   23  A    between atoms: _51  and  _54
REMARK   24  A    between atoms: _54  and  _55
REMARK   25  A    between atoms: _56  and  _58
REMARK   26  A    between atoms: _58  and  _59
REMARK   27  A    between atoms: _58  and  _61
REMARK   28  A    between atoms: _61  and  _62
REMARK   29  A    between atoms: _62  and  _63
REMARK   30  A    between atoms: _68  and  _70
REMARK   31  A    between atoms: _70  and  _71
REMARK   32  A    between atoms: _70  and  _73
REMARK   33  A    between atoms: _73  and  _74
REMARK   34  A    between atoms: _80  and  _82
REMARK   35  A    between atoms: _82  and  _83
REMARK   36  A    between atoms: _82  and  _85
REMARK   37  A    between atoms: _85  and  _86
REMARK   38  A    between atoms: _89  and  _91
REMARK   39  A    between atoms: _91  and  _92
REMARK   40  A    between atoms: _91  and  _94
REMARK   41  A    between atoms: _94  and  _95
REMARK   42  A    between atoms: _95  and  _96
REMARK   43  A    between atoms: _96  and  _97
REMARK   44  A    between atoms: _97  and  _98
REMARK   45  A    between atoms: _102  and  _104
REMARK   46  A    between atoms: _104  and  _105
REMARK   47  A    between atoms: _104  and  _107
REMARK   48  A    between atoms: _107  and  _108
REMARK   49  A    between atoms: _108  and  _109
REMARK   50  A    between atoms: _112  and  _114
REMARK   51  A    between atoms: _114  and  _115
REMARK   52  A    between atoms: _114  and  _117
REMARK   53  A    between atoms: _117  and  _118
REMARK   54  A    between atoms: _121  and  _123
REMARK   55  A    between atoms: _123  and  _124
REMARK   56  A    between atoms: _123  and  _126
REMARK   57  A    between atoms: _126  and  _127
REMARK   58  A    between atoms: _132  and  _133
REMARK   59  A    between atoms: _135  and  _137
REMARK   60  A    between atoms: _137  and  _138
REMARK   61  A    between atoms: _137  and  _140
REMARK   62  A    between atoms: _140  and  _141
REMARK   63  A    between atoms: _144  and  _146
REMARK   64  A    between atoms: _146  and  _147
REMARK   65  A    between atoms: _146  and  _149
REMARK   66  A    between atoms: _149  and  _150
REMARK   67  A    between atoms: _153  and  _155
REMARK   68  A    between atoms: _155  and  _156
REMARK   69  A    between atoms: _155  and  _158
REMARK   70  A    between atoms: _161  and  _163
REMARK   71  A    between atoms: _163  and  _164
REMARK   72  A    between atoms: _163  and  _166
REMARK   73  A    between atoms: _166  and  _167
REMARK   74  A    between atoms: _167  and  _168
REMARK   75  A    between atoms: _168  and  _169
REMARK   76  A    between atoms: _178  and  _180
REMARK   77  A    between atoms: _180  and  _181
REMARK   78  A    between atoms: _180  and  _183
REMARK   79  A    between atoms: _183  and  _184
REMARK   80  A    between atoms: _189  and  _191
REMARK   81  A    between atoms: _191  and  _192
REMARK   82  A    between atoms: _191  and  _194
REMARK   83  A    between atoms: _194  and  _195
REMARK   84  A    between atoms: _195  and  _196
REMARK   85  A    between atoms: _199  and  _201
REMARK   86  A    between atoms: _201  and  _202
REMARK   87  A    between atoms: _201  and  _204
REMARK   88  A    between atoms: _204  and  _205
REMARK   89  A    between atoms: _205  and  _206
REMARK   90  A    between atoms: _206  and  _207
REMARK   91  A    between atoms: _207  and  _208
REMARK   92  A    between atoms: _212  and  _214
REMARK   93  A    between atoms: _214  and  _215
REMARK   94  A    between atoms: _217  and  _219
REMARK   95  A    between atoms: _219  and  _220
REMARK   96  A    between atoms: _219  and  _222
REMARK   97  A    between atoms: _225  and  _227
REMARK   98  A    between atoms: _227  and  _228
REMARK   99  A    between atoms: _227  and  _230
REMARK  100  A    between atoms: _230  and  _231
REMARK  101  A    between atoms: _233  and  _235
REMARK  102  A    between atoms: _235  and  _236
REMARK  103  A    between atoms: _235  and  _238
REMARK  104  A    between atoms: _238  and  _239
REMARK  105  A    between atoms: _241  and  _243
REMARK  106  A    between atoms: _243  and  _244
REMARK  107  A    between atoms: _243  and  _246
REMARK  108  A    between atoms: _246  and  _247
REMARK  109  A    between atoms: _253  and  _255
REMARK  110  A    between atoms: _255  and  _256
REMARK  111  A    between atoms: _255  and  _258
REMARK  112  A    between atoms: _258  and  _259
REMARK  113  A    between atoms: _262  and  _264
REMARK  114  A    between atoms: _264  and  _265
REMARK  115  A    between atoms: _264  and  _267
REMARK  116  A    between atoms: _267  and  _268
REMARK  117  A    between atoms: _271  and  _273
REMARK  118  A    between atoms: _273  and  _274
REMARK  119  A    between atoms: _273  and  _276
REMARK  120  A    between atoms: _276  and  _277
REMARK  121  A    between atoms: _280  and  _282
REMARK  122  A    between atoms: _282  and  _283
REMARK  123  A    between atoms: _282  and  _285
REMARK  124  A    between atoms: _285  and  _286
REMARK  125  A    between atoms: _286  and  _287
REMARK  126  A    between atoms: _289  and  _291
REMARK  127  A    between atoms: _291  and  _292
REMARK  128  A    between atoms: _291  and  _294
REMARK  129  A    between atoms: _294  and  _295
REMARK  130  A    between atoms: _301  and  _303
REMARK  131  A    between atoms: _303  and  _304
REMARK  132  A    between atoms: _303  and  _306
REMARK  133  A    between atoms: _308  and  _310
REMARK  134  A    between atoms: _310  and  _311
REMARK  135  A    between atoms: _314  and  _316
REMARK  136  A    between atoms: _316  and  _317
REMARK  137  A    between atoms: _319  and  _321
REMARK  138  A    between atoms: _321  and  _322
REMARK  139  A    between atoms: _321  and  _324
REMARK  140  A    between atoms: _324  and  _325
REMARK  141  A    between atoms: _328  and  _330
REMARK  142  A    between atoms: _330  and  _331
REMARK  143  A    between atoms: _334  and  _336
REMARK  144  A    between atoms: _336  and  _337
REMARK  145  A    between atoms: _336  and  _339
REMARK  146  A    between atoms: _339  and  _340
REMARK  147  A    between atoms: _340  and  _463
REMARK  148  A    between atoms: _341  and  _343
REMARK  149  A    between atoms: _343  and  _344
REMARK  150  A    between atoms: _343  and  _346
REMARK  151  A    between atoms: _346  and  _347
REMARK  152  A    between atoms: _347  and  _348
REMARK  153  A    between atoms: _353  and  _355
REMARK  154  A    between atoms: _355  and  _356
REMARK  155  A    between atoms: _358  and  _360
REMARK  156  A    between atoms: _360  and  _361
REMARK  157  A    between atoms: _360  and  _363
REMARK  158  A    between atoms: _363  and  _364
REMARK  159  A    between atoms: _367  and  _369
REMARK  160  A    between atoms: _369  and  _370
REMARK  161  A    between atoms: _369  and  _372
REMARK  162  A    between atoms: _372  and  _373
REMARK  163  A    between atoms: _375  and  _377
REMARK  164  A    between atoms: _377  and  _378
REMARK  165  A    between atoms: _380  and  _382
REMARK  166  A    between atoms: _382  and  _383
REMARK  167  A    between atoms: _385  and  _387
REMARK  168  A    between atoms: _387  and  _388
REMARK  169  A    between atoms: _387  and  _390
REMARK  170  A    between atoms: _390  and  _391
REMARK  171  A    between atoms: _396  and  _398
REMARK  172  A    between atoms: _398  and  _399
REMARK  173  A    between atoms: _398  and  _401
REMARK  174  A    between atoms: _401  and  _402
REMARK  175  A    between atoms: _405  and  _407
REMARK  176  A    between atoms: _407  and  _408
REMARK  177  A    between atoms: _407  and  _410
REMARK  178  A    between atoms: _413  and  _415
REMARK  179  A    between atoms: _415  and  _416
REMARK  180  A    between atoms: _415  and  _418
REMARK  181  A    between atoms: _418  and  _419
REMARK  182  A    between atoms: _421  and  _423
REMARK  183  A    between atoms: _423  and  _424
REMARK  184  A    between atoms: _423  and  _426
REMARK  185  A    between atoms: _426  and  _427
REMARK  186  A    between atoms: _437  and  _439
REMARK  187  A    between atoms: _439  and  _440
REMARK  188  A    between atoms: _442  and  _444
REMARK  189  A    between atoms: _444  and  _445
REMARK  190  A    between atoms: _444  and  _447
REMARK  191  A    between atoms: _447  and  _448
REMARK  192  A    between atoms: _448  and  _449
REMARK  193  A    between atoms: _452  and  _454
REMARK  194  A    between atoms: _454  and  _455
REMARK  195  A    between atoms: _457  and  _459
REMARK  196  A    between atoms: _459  and  _460
REMARK  197  A    between atoms: _459  and  _462
REMARK  198  A    between atoms: _462  and  _463
REMARK  199  A    between atoms: _464  and  _466
REMARK  200  A    between atoms: _466  and  _467
REMARK  201  A    between atoms: _470  and  _472
REMARK  202  A    between atoms: _472  and  _473
REMARK  203  A    between atoms: _472  and  _475
REMARK  204  A    between atoms: _475  and  _476
REMARK  205  A    between atoms: _476  and  _477
REMARK  206  A    between atoms: _477  and  _478
REMARK  207  A    between atoms: _487  and  _489
REMARK  208  A    between atoms: _489  and  _490
REMARK  209  A    between atoms: _489  and  _492
REMARK  210  A    between atoms: _492  and  _493
REMARK  211  A    between atoms: _498  and  _499
REMARK  212  A    between atoms: _501  and  _503
REMARK  213  A    between atoms: _503  and  _504
REMARK  214  A    between atoms: _506  and  _508
REMARK  215  A    between atoms: _508  and  _509
REMARK  216  A    between atoms: _508  and  _511
REMARK  217  A    between atoms: _511  and  _512
REMARK  218  A    between atoms: _515  and  _517
REMARK  219  A    between atoms: _517  and  _518
REMARK  220  A    between atoms: _517  and  _520
REMARK  221  A    between atoms: _520  and  _521
REMARK  222  A    between atoms: _526  and  _527
REMARK  223  A    between atoms: _529  and  _531
REMARK  224  A    between atoms: _531  and  _532
REMARK  225  A    between atoms: _531  and  _534
REMARK  226  A    between atoms: _534  and  _535
REMARK                            x       y       z     vdW  Elec       q    Type
REMARK                         _______ _______ _______ _____ _____    ______ ____
ROOT
ATOM      1  O   HOH     1       3.743  53.398   5.253  0.00  0.00    +0.000 OA
ENDROOT
TORSDOF 0
REMARK  Name = ../refined-set-2016/2xc0/2xc0_pocket.pdb
REMARK  226 active torsions:
REMARK  status: ('A' for Active; 'I' for Inactive)
REMARK    1  A    between atoms: _1  and  _5
REMARK    2  A    between atoms: _5  and  _6
REMARK    3  A    between atoms: _5  and  _8
REMARK    4  A    between atoms: _8  and  _9
REMARK    5  A    between atoms: _12  and  _14
REMARK    6  A    between atoms: _14  and  _15
REMARK    7  A    between atoms: _14  and  _17
REMARK    8  A    between atoms: _20  and  _22
REMARK    9  A    between atoms: _22  and  _23
REMARK   10  A    between atoms: _22  and  _25
REMARK   11  A    between atoms: _25  and  _26
REMARK   12  A    between atoms: _26  and  _55
REMARK   13  A    between atoms: _27  and  _29
REMARK   14  A    between atoms: _29  and  _30
REMARK   15  A    between atoms: _32  and  _34
REMARK   16  A    between atoms: _34  and  _35
REMARK   17  A    between atoms: _38  and  _40
REMARK   18  A    between atoms: _40  and  _41
REMARK   19  A    between atoms: _40  and  _43
REMARK   20  A    between atoms: _43  and  _44
REMARK   21  A    between atoms: _49  and  _51
REMARK   22  A    between atoms: _51  and  _52
REMARK   23  A    between atoms: _51  and  _54
REMARK   24  A    between atoms: _54  and  _55
REMARK   25  A    between atoms: _56  and  _58
REMARK   26  A    between atoms: _58  and  _59
REMARK   27  A    between atoms: _58  and  _61
REMARK   28  A    between atoms: _61  and  _62
REMARK   29  A    between atoms: _62  and  _63
REMARK   30  A    between atoms: _68  and  _70
REMARK   31  A    between atoms: _70  and  _71
REMARK   32  A    between atoms: _70  and  _73
REMARK   33  A    between atoms: _73  and  _74
REMARK   34  A    between atoms: _80  and  _82
REMARK   35  A    between atoms: _82  and  _83
REMARK   36  A    between atoms: _82  and  _85
REMARK   37  A    between atoms: _85  and  _86
REMARK   38  A    between atoms: _89  and  _91
REMARK   39  A    between atoms: _91  and  _92
REMARK   40  A    between atoms: _91  and  _94
REMARK   41  A    between atoms: _94  and  _95
REMARK   42  A    between atoms: _95  and  _96
REMARK   43  A    between atoms: _96  and  _97
REMARK   44  A    between atoms: _97  and  _98
REMARK   45  A    between atoms: _102  and  _104
REMARK   46  A    between atoms: _104  and  _105
REMARK   47  A    between atoms: _104  and  _107
REMARK   48  A    between atoms: _107  and  _108
REMARK   49  A    between atoms: _108  and  _109
REMARK   50  A    between atoms: _112  and  _114
REMARK   51  A    between atoms: _114  and  _115
REMARK   52  A    between atoms: _114  and  _117
REMARK   53  A    between atoms: _117  and  _118
REMARK   54  A    between atoms: _121  and  _123
REMARK   55  A    between atoms: _123  and  _124
REMARK   56  A    between atoms: _123  and  _126
REMARK   57  A    between atoms: _126  and  _127
REMARK   58  A    between atoms: _132  and  _133
REMARK   59  A    between atoms: _135  and  _137
REMARK   60  A    between atoms: _137  and  _138
REMARK   61  A    between atoms: _137  and  _140
REMARK   62  A    between atoms: _140  and  _141
REMARK   63  A    between atoms: _144  and  _146
REMARK   64  A    between atoms: _146  and  _147
REMARK   65  A    between atoms: _146  and  _149
REMARK   66  A    between atoms: _149  and  _150
REMARK   67  A    between atoms: _153  and  _155
REMARK   68  A    between atoms: _155  and  _156
REMARK   69  A    between atoms: _155  and  _158
REMARK   70  A    between atoms: _161  and  _163
REMARK   71  A    between atoms: _163  and  _164
REMARK   72  A    between atoms: _163  and  _166
REMARK   73  A    between atoms: _166  and  _167
REMARK   74  A    between atoms: _167  and  _168
REMARK   75  A    between atoms: _168  and  _169
REMARK   76  A    between atoms: _178  and  _180
REMARK   77  A    between atoms: _180  and  _181
REMARK   78  A    between atoms: _180  and  _183
REMARK   79  A    between atoms: _183  and  _184
REMARK   80  A    between atoms: _189  and  _191
REMARK   81  A    between atoms: _191  and  _192
REMARK   82  A    between atoms: _191  and  _194
REMARK   83  A    between atoms: _194  and  _195
REMARK   84  A    between atoms: _195  and  _196
REMARK   85  A    between atoms: _199  and  _201
REMARK   86  A    between atoms: _201  and  _202
REMARK   87  A    between atoms: _201  and  _204
REMARK   88  A    between atoms: _204  and  _205
REMARK   89  A    between atoms: _205  and  _206
REMARK   90  A    between atoms: _206  and  _207
REMARK   91  A    between atoms: _207  and  _208
REMARK   92  A    between atoms: _212  and  _214
REMARK   93  A    between atoms: _214  and  _215
REMARK   94  A    between atoms: _217  and  _219
REMARK   95  A    between atoms: _219  and  _220
REMARK   96  A    between atoms: _219  and  _222
REMARK   97  A    between atoms: _225  and  _227
REMARK   98  A    between atoms: _227  and  _228
REMARK   99  A    between atoms: _227  and  _230
REMARK  100  A    between atoms: _230  and  _231
REMARK  101  A    between atoms: _233  and  _235
REMARK  102  A    between atoms: _235  and  _236
REMARK  103  A    between atoms: _235  and  _238
REMARK  104  A    between atoms: _238  and  _239
REMARK  105  A    between atoms: _241  and  _243
REMARK  106  A    between atoms: _243  and  _244
REMARK  107  A    between atoms: _243  and  _246
REMARK  108  A    between atoms: _246  and  _247
REMARK  109  A    between atoms: _253  and  _255
REMARK  110  A    between atoms: _255  and  _256
REMARK  111  A    between atoms: _255  and  _258
REMARK  112  A    between atoms: _258  and  _259
REMARK  113  A    between atoms: _262  and  _264
REMARK  114  A    between atoms: _264  and  _265
REMARK  115  A    between atoms: _264  and  _267
REMARK  116  A    between atoms: _267  and  _268
REMARK  117  A    between atoms: _271  and  _273
REMARK  118  A    between atoms: _273  and  _274
REMARK  119  A    between atoms: _273  and  _276
REMARK  120  A    between atoms: _276  and  _277
REMARK  121  A    between atoms: _280  and  _282
REMARK  122  A    between atoms: _282  and  _283
REMARK  123  A    between atoms: _282  and  _285
REMARK  124  A    between atoms: _285  and  _286
REMARK  125  A    between atoms: _286  and  _287
REMARK  126  A    between atoms: _289  and  _291
REMARK  127  A    between atoms: _291  and  _292
REMARK  128  A    between atoms: _291  and  _294
REMARK  129  A    between atoms: _294  and  _295
REMARK  130  A    between atoms: _301  and  _303
REMARK  131  A    between atoms: _303  and  _304
REMARK  132  A    between atoms: _303  and  _306
REMARK  133  A    between atoms: _308  and  _310
REMARK  134  A    between atoms: _310  and  _311
REMARK  135  A    between atoms: _314  and  _316
REMARK  136  A    between atoms: _316  and  _317
REMARK  137  A    between atoms: _319  and  _321
REMARK  138  A    between atoms: _321  and  _322
REMARK  139  A    between atoms: _321  and  _324
REMARK  140  A    between atoms: _324  and  _325
REMARK  141  A    between atoms: _328  and  _330
REMARK  142  A    between atoms: _330  and  _331
REMARK  143  A    between atoms: _334  and  _336
REMARK  144  A    between atoms: _336  and  _337
REMARK  145  A    between atoms: _336  and  _339
REMARK  146  A    between atoms: _339  and  _340
REMARK  147  A    between atoms: _340  and  _463
REMARK  148  A    between atoms: _341  and  _343
REMARK  149  A    between atoms: _343  and  _344
REMARK  150  A    between atoms: _343  and  _346
REMARK  151  A    between atoms: _346  and  _347
REMARK  152  A    between atoms: _347  and  _348
REMARK  153  A    between atoms: _353  and  _355
REMARK  154  A    between atoms: _355  and  _356
REMARK  155  A    between atoms: _358  and  _360
REMARK  156  A    between atoms: _360  and  _361
REMARK  157  A    between atoms: _360  and  _363
REMARK  158  A    between atoms: _363  and  _364
REMARK  159  A    between atoms: _367  and  _369
REMARK  160  A    between atoms: _369  and  _370
REMARK  161  A    between atoms: _369  and  _372
REMARK  162  A    between atoms: _372  and  _373
REMARK  163  A    between atoms: _375  and  _377
REMARK  164  A    between atoms: _377  and  _378
REMARK  165  A    between atoms: _380  and  _382
REMARK  166  A    between atoms: _382  and  _383
REMARK  167  A    between atoms: _385  and  _387
REMARK  168  A    between atoms: _387  and  _388
REMARK  169  A    between atoms: _387  and  _390
REMARK  170  A    between atoms: _390  and  _391
REMARK  171  A    between atoms: _396  and  _398
REMARK  172  A    between atoms: _398  and  _399
REMARK  173  A    between atoms: _398  and  _401
REMARK  174  A    between atoms: _401  and  _402
REMARK  175  A    between atoms: _405  and  _407
REMARK  176  A    between atoms: _407  and  _408
REMARK  177  A    between atoms: _407  and  _410
REMARK  178  A    between atoms: _413  and  _415
REMARK  179  A    between atoms: _415  and  _416
REMARK  180  A    between atoms: _415  and  _418
REMARK  181  A    between atoms: _418  and  _419
REMARK  182  A    between atoms: _421  and  _423
REMARK  183  A    between atoms: _423  and  _424
REMARK  184  A    between atoms: _423  and  _426
REMARK  185  A    between atoms: _426  and  _427
REMARK  186  A    between atoms: _437  and  _439
REMARK  187  A    between atoms: _439  and  _440
REMARK  188  A    between atoms: _442  and  _444
REMARK  189  A    between atoms: _444  and  _445
REMARK  190  A    between atoms: _444  and  _447
REMARK  191  A    between atoms: _447  and  _448
REMARK  192  A    between atoms: _448  and  _449
REMARK  193  A    between atoms: _452  and  _454
REMARK  194  A    between atoms: _454  and  _455
REMARK  195  A    between atoms: _457  and  _459
REMARK  196  A    between atoms: _459  and  _460
REMARK  197  A    between atoms: _459  and  _462
REMARK  198  A    between atoms: _462  and  _463
REMARK  199  A    between atoms: _464  and  _466
REMARK  200  A    between atoms: _466  and  _467
REMARK  201  A    between atoms: _470  and  _472
REMARK  202  A    between atoms: _472  and  _473
REMARK  203  A    between atoms: _472  and  _475
REMARK  204  A    between atoms: _475  and  _476
REMARK  205  A    between atoms: _476  and  _477
REMARK  206  A    between atoms: _477  and  _478
REMARK  207  A    between atoms: _487  and  _489
REMARK  208  A    between atoms: _489  and  _490
REMARK  209  A    between atoms: _489  and  _492
REMARK  210  A    between atoms: _492  and  _493
REMARK  211  A    between atoms: _498  and  _499
REMARK  212  A    between atoms: _501  and  _503
REMARK  213  A    between atoms: _503  and  _504
REMARK  214  A    between atoms: _506  and  _508
REMARK  215  A    between atoms: _508  and  _509
REMARK  216  A    between atoms: _508  and  _511
REMARK  217  A    between atoms: _511  and  _512
REMARK  218  A    between atoms: _515  and  _517
REMARK  219  A    between atoms: _517  and  _518
REMARK  220  A    between atoms: _517  and  _520
REMARK  221  A    between atoms: _520  and  _521
REMARK  222  A    between atoms: _526  and  _527
REMARK  223  A    between atoms: _529  and  _531
REMARK  224  A    between atoms: _531  and  _532
REMARK  225  A    between atoms: _531  and  _534
REMARK  226  A    between atoms: _534  and  _535
REMARK                            x       y       z     vdW  Elec       q    Type
REMARK                         _______ _______ _______ _____ _____    ______ ____
ROOT
ATOM      1  O   HOH     1      15.947  65.610  14.056  0.00  0.00    +0.000 OA
ENDROOT
TORSDOF 0
REMARK  Name = ../refined-set-2016/2xc0/2xc0_pocket.pdb
REMARK  226 active torsions:
REMARK  status: ('A' for Active; 'I' for Inactive)
REMARK    1  A    between atoms: _1  and  _5
REMARK    2  A    between atoms: _5  and  _6
REMARK    3  A    between atoms: _5  and  _8
REMARK    4  A    between atoms: _8  and  _9
REMARK    5  A    between atoms: _12  and  _14
REMARK    6  A    between atoms: _14  and  _15
REMARK    7  A    between atoms: _14  and  _17
REMARK    8  A    between atoms: _20  and  _22
REMARK    9  A    between atoms: _22  and  _23
REMARK   10  A    between atoms: _22  and  _25
REMARK   11  A    between atoms: _25  and  _26
REMARK   12  A    between atoms: _26  and  _55
REMARK   13  A    between atoms: _27  and  _29
REMARK   14  A    between atoms: _29  and  _30
REMARK   15  A    between atoms: _32  and  _34
REMARK   16  A    between atoms: _34  and  _35
REMARK   17  A    between atoms: _38  and  _40
REMARK   18  A    between atoms: _40  and  _41
REMARK   19  A    between atoms: _40  and  _43
REMARK   20  A    between atoms: _43  and  _44
REMARK   21  A    between atoms: _49  and  _51
REMARK   22  A    between atoms: _51  and  _52
REMARK   23  A    between atoms: _51  and  _54
REMARK   24  A    between atoms: _54  and  _55
REMARK   25  A    between atoms: _56  and  _58
REMARK   26  A    between atoms: _58  and  _59
REMARK   27  A    between atoms: _58  and  _61
REMARK   28  A    between atoms: _61  and  _62
REMARK   29  A    between atoms: _62  and  _63
REMARK   30  A    between atoms: _68  and  _70
REMARK   31  A    between atoms: _70  and  _71
REMARK   32  A    between atoms: _70  and  _73
REMARK   33  A    between atoms: _73  and  _74
REMARK   34  A    between atoms: _80  and  _82
REMARK   35  A    between atoms: _82  and  _83
REMARK   36  A    between atoms: _82  and  _85
REMARK   37  A    between atoms: _85  and  _86
REMARK   38  A    between atoms: _89  and  _91
REMARK   39  A    between atoms: _91  and  _92
REMARK   40  A    between atoms: _91  and  _94
REMARK   41  A    between atoms: _94  and  _95
REMARK   42  A    between atoms: _95  and  _96
REMARK   43  A    between atoms: _96  and  _97
REMARK   44  A    between atoms: _97  and  _98
REMARK   45  A    between atoms: _102  and  _104
REMARK   46  A    between atoms: _104  and  _105
REMARK   47  A    between atoms: _104  and  _107
REMARK   48  A    between atoms: _107  and  _108
REMARK   49  A    between atoms: _108  and  _109
REMARK   50  A    between atoms: _112  and  _114
REMARK   51  A    between atoms: _114  and  _115
REMARK   52  A    between atoms: _114  and  _117
REMARK   53  A    between atoms: _117  and  _118
REMARK   54  A    between atoms: _121  and  _123
REMARK   55  A    between atoms: _123  and  _124
REMARK   56  A    between atoms: _123  and  _126
REMARK   57  A    between atoms: _126  and  _127
REMARK   58  A    between atoms: _132  and  _133
REMARK   59  A    between atoms: _135  and  _137
REMARK   60  A    between atoms: _137  and  _138
REMARK   61  A    between atoms: _137  and  _140
REMARK   62  A    between atoms: _140  and  _141
REMARK   63  A    between atoms: _144  and  _146
REMARK   64  A    between atoms: _146  and  _147
REMARK   65  A    between atoms: _146  and  _149
REMARK   66  A    between atoms: _149  and  _150
REMARK   67  A    between atoms: _153  and  _155
REMARK   68  A    between atoms: _155  and  _156
REMARK   69  A    between atoms: _155  and  _158
REMARK   70  A    between atoms: _161  and  _163
REMARK   71  A    between atoms: _163  and  _164
REMARK   72  A    between atoms: _163  and  _166
REMARK   73  A    between atoms: _166  and  _167
REMARK   74  A    between atoms: _167  and  _168
REMARK   75  A    between atoms: _168  and  _169
REMARK   76  A    between atoms: _178  and  _180
REMARK   77  A    between atoms: _180  and  _181
REMARK   78  A    between atoms: _180  and  _183
REMARK   79  A    between atoms: _183  and  _184
REMARK   80  A    between atoms: _189  and  _191
REMARK   81  A    between atoms: _191  and  _192
REMARK   82  A    between atoms: _191  and  _194
REMARK   83  A    between atoms: _194  and  _195
REMARK   84  A    between atoms: _195  and  _196
REMARK   85  A    between atoms: _199  and  _201
REMARK   86  A    between atoms: _201  and  _202
REMARK   87  A    between atoms: _201  and  _204
REMARK   88  A    between atoms: _204  and  _205
REMARK   89  A    between atoms: _205  and  _206
REMARK   90  A    between atoms: _206  and  _207
REMARK   91  A    between atoms: _207  and  _208
REMARK   92  A    between atoms: _212  and  _214
REMARK   93  A    between atoms: _214  and  _215
REMARK   94  A    between atoms: _217  and  _219
REMARK   95  A    between atoms: _219  and  _220
REMARK   96  A    between atoms: _219  and  _222
REMARK   97  A    between atoms: _225  and  _227
REMARK   98  A    between atoms: _227  and  _228
REMARK   99  A    between atoms: _227  and  _230
REMARK  100  A    between atoms: _230  and  _231
REMARK  101  A    between atoms: _233  and  _235
REMARK  102  A    between atoms: _235  and  _236
REMARK  103  A    between atoms: _235  and  _238
REMARK  104  A    between atoms: _238  and  _239
REMARK  105  A    between atoms: _241  and  _243
REMARK  106  A    between atoms: _243  and  _244
REMARK  107  A    between atoms: _243  and  _246
REMARK  108  A    between atoms: _246  and  _247
REMARK  109  A    between atoms: _253  and  _255
REMARK  110  A    between atoms: _255  and  _256
REMARK  111  A    between atoms: _255  and  _258
REMARK  112  A    between atoms: _258  and  _259
REMARK  113  A    between atoms: _262  and  _264
REMARK  114  A    between atoms: _264  and  _265
REMARK  115  A    between atoms: _264  and  _267
REMARK  116  A    between atoms: _267  and  _268
REMARK  117  A    between atoms: _271  and  _273
REMARK  118  A    between atoms: _273  and  _274
REMARK  119  A    between atoms: _273  and  _276
REMARK  120  A    between atoms: _276  and  _277
REMARK  121  A    between atoms: _280  and  _282
REMARK  122  A    between atoms: _282  and  _283
REMARK  123  A    between atoms: _282  and  _285
REMARK  124  A    between atoms: _285  and  _286
REMARK  125  A    between atoms: _286  and  _287
REMARK  126  A    between atoms: _289  and  _291
REMARK  127  A    between atoms: _291  and  _292
REMARK  128  A    between atoms: _291  and  _294
REMARK  129  A    between atoms: _294  and  _295
REMARK  130  A    between atoms: _301  and  _303
REMARK  131  A    between atoms: _303  and  _304
REMARK  132  A    between atoms: _303  and  _306
REMARK  133  A    between atoms: _308  and  _310
REMARK  134  A    between atoms: _310  and  _311
REMARK  135  A    between atoms: _314  and  _316
REMARK  136  A    between atoms: _316  and  _317
REMARK  137  A    between atoms: _319  and  _321
REMARK  138  A    between atoms: _321  and  _322
REMARK  139  A    between atoms: _321  and  _324
REMARK  140  A    between atoms: _324  and  _325
REMARK  141  A    between atoms: _328  and  _330
REMARK  142  A    between atoms: _330  and  _331
REMARK  143  A    between atoms: _334  and  _336
REMARK  144  A    between atoms: _336  and  _337
REMARK  145  A    between atoms: _336  and  _339
REMARK  146  A    between atoms: _339  and  _340
REMARK  147  A    between atoms: _340  and  _463
REMARK  148  A    between atoms: _341  and  _343
REMARK  149  A    between atoms: _343  and  _344
REMARK  150  A    between atoms: _343  and  _346
REMARK  151  A    between atoms: _346  and  _347
REMARK  152  A    between atoms: _347  and  _348
REMARK  153  A    between atoms: _353  and  _355
REMARK  154  A    between atoms: _355  and  _356
REMARK  155  A    between atoms: _358  and  _360
REMARK  156  A    between atoms: _360  and  _361
REMARK  157  A    between atoms: _360  and  _363
REMARK  158  A    between atoms: _363  and  _364
REMARK  159  A    between atoms: _367  and  _369
REMARK  160  A    between atoms: _369  and  _370
REMARK  161  A    between atoms: _369  and  _372
REMARK  162  A    between atoms: _372  and  _373
REMARK  163  A    between atoms: _375  and  _377
REMARK  164  A    between atoms: _377  and  _378
REMARK  165  A    between atoms: _380  and  _382
REMARK  166  A    between atoms: _382  and  _383
REMARK  167  A    between atoms: _385  and  _387
REMARK  168  A    between atoms: _387  and  _388
REMARK  169  A    between atoms: _387  and  _390
REMARK  170  A    between atoms: _390  and  _391
REMARK  171  A    between atoms: _396  and  _398
REMARK  172  A    between atoms: _398  and  _399
REMARK  173  A    between atoms: _398  and  _401
REMARK  174  A    between atoms: _401  and  _402
REMARK  175  A    between atoms: _405  and  _407
REMARK  176  A    between atoms: _407  and  _408
REMARK  177  A    between atoms: _407  and  _410
REMARK  178  A    between atoms: _413  and  _415
REMARK  179  A    between atoms: _415  and  _416
REMARK  180  A    between atoms: _415  and  _418
REMARK  181  A    between atoms: _418  and  _419
REMARK  182  A    between atoms: _421  and  _423
REMARK  183  A    between atoms: _423  and  _424
REMARK  184  A    between atoms: _423  and  _426
REMARK  185  A    between atoms: _426  and  _427
REMARK  186  A    between atoms: _437  and  _439
REMARK  187  A    between atoms: _439  and  _440
REMARK  188  A    between atoms: _442  and  _444
REMARK  189  A    between atoms: _444  and  _445
REMARK  190  A    between atoms: _444  and  _447
REMARK  191  A    between atoms: _447  and  _448
REMARK  192  A    between atoms: _448  and  _449
REMARK  193  A    between atoms: _452  and  _454
REMARK  194  A    between atoms: _454  and  _455
REMARK  195  A    between atoms: _457  and  _459
REMARK  196  A    between atoms: _459  and  _460
REMARK  197  A    between atoms: _459  and  _462
REMARK  198  A    between atoms: _462  and  _463
REMARK  199  A    between atoms: _464  and  _466
REMARK  200  A    between atoms: _466  and  _467
REMARK  201  A    between atoms: _470  and  _472
REMARK  202  A    between atoms: _472  and  _473
REMARK  203  A    between atoms: _472  and  _475
REMARK  204  A    between atoms: _475  and  _476
REMARK  205  A    between atoms: _476  and  _477
REMARK  206  A    between atoms: _477  and  _478
REMARK  207  A    between atoms: _487  and  _489
REMARK  208  A    between atoms: _489  and  _490
REMARK  209  A    between atoms: _489  and  _492
REMARK  210  A    between atoms: _492  and  _493
REMARK  211  A    between atoms: _498  and  _499
REMARK  212  A    between atoms: _501  and  _503
REMARK  213  A    between atoms: _503  and  _504
REMARK  214  A    between atoms: _506  and  _508
REMARK  215  A    between atoms: _508  and  _509
REMARK  216  A    between atoms: _508  and  _511
REMARK  217  A    between atoms: _511  and  _512
REMARK  218  A    between atoms: _515  and  _517
REMARK  219  A    between atoms: _517  and  _518
REMARK  220  A    between atoms: _517  and  _520
REMARK  221  A    between atoms: _520  and  _521
REMARK  222  A    between atoms: _526  and  _527
REMARK  223  A    between atoms: _529  and  _531
REMARK  224  A    between atoms: _531  and  _532
REMARK  225  A    between atoms: _531  and  _534
REMARK  226  A    between atoms: _534  and  _535
REMARK                            x       y       z     vdW  Elec       q    Type
REMARK                         _______ _______ _______ _____ _____    ______ ____
ROOT
ATOM      1  O   HOH     1      12.120  64.725   9.751  0.00  0.00    +0.000 OA
ENDROOT
TORSDOF 0
REMARK  Name = ../refined-set-2016/2xc0/2xc0_pocket.pdb
REMARK  226 active torsions:
REMARK  status: ('A' for Active; 'I' for Inactive)
REMARK    1  A    between atoms: _1  and  _5
REMARK    2  A    between atoms: _5  and  _6
REMARK    3  A    between atoms: _5  and  _8
REMARK    4  A    between atoms: _8  and  _9
REMARK    5  A    between atoms: _12  and  _14
REMARK    6  A    between atoms: _14  and  _15
REMARK    7  A    between atoms: _14  and  _17
REMARK    8  A    between atoms: _20  and  _22
REMARK    9  A    between atoms: _22  and  _23
REMARK   10  A    between atoms: _22  and  _25
REMARK   11  A    between atoms: _25  and  _26
REMARK   12  A    between atoms: _26  and  _55
REMARK   13  A    between atoms: _27  and  _29
REMARK   14  A    between atoms: _29  and  _30
REMARK   15  A    between atoms: _32  and  _34
REMARK   16  A    between atoms: _34  and  _35
REMARK   17  A    between atoms: _38  and  _40
REMARK   18  A    between atoms: _40  and  _41
REMARK   19  A    between atoms: _40  and  _43
REMARK   20  A    between atoms: _43  and  _44
REMARK   21  A    between atoms: _49  and  _51
REMARK   22  A    between atoms: _51  and  _52
REMARK   23  A    between atoms: _51  and  _54
REMARK   24  A    between atoms: _54  and  _55
REMARK   25  A    between atoms: _56  and  _58
REMARK   26  A    between atoms: _58  and  _59
REMARK   27  A    between atoms: _58  and  _61
REMARK   28  A    between atoms: _61  and  _62
REMARK   29  A    between atoms: _62  and  _63
REMARK   30  A    between atoms: _68  and  _70
REMARK   31  A    between atoms: _70  and  _71
REMARK   32  A    between atoms: _70  and  _73
REMARK   33  A    between atoms: _73  and  _74
REMARK   34  A    between atoms: _80  and  _82
REMARK   35  A    between atoms: _82  and  _83
REMARK   36  A    between atoms: _82  and  _85
REMARK   37  A    between atoms: _85  and  _86
REMARK   38  A    between atoms: _89  and  _91
REMARK   39  A    between atoms: _91  and  _92
REMARK   40  A    between atoms: _91  and  _94
REMARK   41  A    between atoms: _94  and  _95
REMARK   42  A    between atoms: _95  and  _96
REMARK   43  A    between atoms: _96  and  _97
REMARK   44  A    between atoms: _97  and  _98
REMARK   45  A    between atoms: _102  and  _104
REMARK   46  A    between atoms: _104  and  _105
REMARK   47  A    between atoms: _104  and  _107
REMARK   48  A    between atoms: _107  and  _108
REMARK   49  A    between atoms: _108  and  _109
REMARK   50  A    between atoms: _112  and  _114
REMARK   51  A    between atoms: _114  and  _115
REMARK   52  A    between atoms: _114  and  _117
REMARK   53  A    between atoms: _117  and  _118
REMARK   54  A    between atoms: _121  and  _123
REMARK   55  A    between atoms: _123  and  _124
REMARK   56  A    between atoms: _123  and  _126
REMARK   57  A    between atoms: _126  and  _127
REMARK   58  A    between atoms: _132  and  _133
REMARK   59  A    between atoms: _135  and  _137
REMARK   60  A    between atoms: _137  and  _138
REMARK   61  A    between atoms: _137  and  _140
REMARK   62  A    between atoms: _140  and  _141
REMARK   63  A    between atoms: _144  and  _146
REMARK   64  A    between atoms: _146  and  _147
REMARK   65  A    between atoms: _146  and  _149
REMARK   66  A    between atoms: _149  and  _150
REMARK   67  A    between atoms: _153  and  _155
REMARK   68  A    between atoms: _155  and  _156
REMARK   69  A    between atoms: _155  and  _158
REMARK   70  A    between atoms: _161  and  _163
REMARK   71  A    between atoms: _163  and  _164
REMARK   72  A    between atoms: _163  and  _166
REMARK   73  A    between atoms: _166  and  _167
REMARK   74  A    between atoms: _167  and  _168
REMARK   75  A    between atoms: _168  and  _169
REMARK   76  A    between atoms: _178  and  _180
REMARK   77  A    between atoms: _180  and  _181
REMARK   78  A    between atoms: _180  and  _183
REMARK   79  A    between atoms: _183  and  _184
REMARK   80  A    between atoms: _189  and  _191
REMARK   81  A    between atoms: _191  and  _192
REMARK   82  A    between atoms: _191  and  _194
REMARK   83  A    between atoms: _194  and  _195
REMARK   84  A    between atoms: _195  and  _196
REMARK   85  A    between atoms: _199  and  _201
REMARK   86  A    between atoms: _201  and  _202
REMARK   87  A    between atoms: _201  and  _204
REMARK   88  A    between atoms: _204  and  _205
REMARK   89  A    between atoms: _205  and  _206
REMARK   90  A    between atoms: _206  and  _207
REMARK   91  A    between atoms: _207  and  _208
REMARK   92  A    between atoms: _212  and  _214
REMARK   93  A    between atoms: _214  and  _215
REMARK   94  A    between atoms: _217  and  _219
REMARK   95  A    between atoms: _219  and  _220
REMARK   96  A    between atoms: _219  and  _222
REMARK   97  A    between atoms: _225  and  _227
REMARK   98  A    between atoms: _227  and  _228
REMARK   99  A    between atoms: _227  and  _230
REMARK  100  A    between atoms: _230  and  _231
REMARK  101  A    between atoms: _233  and  _235
REMARK  102  A    between atoms: _235  and  _236
REMARK  103  A    between atoms: _235  and  _238
REMARK  104  A    between atoms: _238  and  _239
REMARK  105  A    between atoms: _241  and  _243
REMARK  106  A    between atoms: _243  and  _244
REMARK  107  A    between atoms: _243  and  _246
REMARK  108  A    between atoms: _246  and  _247
REMARK  109  A    between atoms: _253  and  _255
REMARK  110  A    between atoms: _255  and  _256
REMARK  111  A    between atoms: _255  and  _258
REMARK  112  A    between atoms: _258  and  _259
REMARK  113  A    between atoms: _262  and  _264
REMARK  114  A    between atoms: _264  and  _265
REMARK  115  A    between atoms: _264  and  _267
REMARK  116  A    between atoms: _267  and  _268
REMARK  117  A    between atoms: _271  and  _273
REMARK  118  A    between atoms: _273  and  _274
REMARK  119  A    between atoms: _273  and  _276
REMARK  120  A    between atoms: _276  and  _277
REMARK  121  A    between atoms: _280  and  _282
REMARK  122  A    between atoms: _282  and  _283
REMARK  123  A    between atoms: _282  and  _285
REMARK  124  A    between atoms: _285  and  _286
REMARK  125  A    between atoms: _286  and  _287
REMARK  126  A    between atoms: _289  and  _291
REMARK  127  A    between atoms: _291  and  _292
REMARK  128  A    between atoms: _291  and  _294
REMARK  129  A    between atoms: _294  and  _295
REMARK  130  A    between atoms: _301  and  _303
REMARK  131  A    between atoms: _303  and  _304
REMARK  132  A    between atoms: _303  and  _306
REMARK  133  A    between atoms: _308  and  _310
REMARK  134  A    between atoms: _310  and  _311
REMARK  135  A    between atoms: _314  and  _316
REMARK  136  A    between atoms: _316  and  _317
REMARK  137  A    between atoms: _319  and  _321
REMARK  138  A    between atoms: _321  and  _322
REMARK  139  A    between atoms: _321  and  _324
REMARK  140  A    between atoms: _324  and  _325
REMARK  141  A    between atoms: _328  and  _330
REMARK  142  A    between atoms: _330  and  _331
REMARK  143  A    between atoms: _334  and  _336
REMARK  144  A    between atoms: _336  and  _337
REMARK  145  A    between atoms: _336  and  _339
REMARK  146  A    between atoms: _339  and  _340
REMARK  147  A    between atoms: _340  and  _463
REMARK  148  A    between atoms: _341  and  _343
REMARK  149  A    between atoms: _343  and  _344
REMARK  150  A    between atoms: _343  and  _346
REMARK  151  A    between atoms: _346  and  _347
REMARK  152  A    between atoms: _347  and  _348
REMARK  153  A    between atoms: _353  and  _355
REMARK  154  A    between atoms: _355  and  _356
REMARK  155  A    between atoms: _358  and  _360
REMARK  156  A    between atoms: _360  and  _361
REMARK  157  A    between atoms: _360  and  _363
REMARK  158  A    between atoms: _363  and  _364
REMARK  159  A    between atoms: _367  and  _369
REMARK  160  A    between atoms: _369  and  _370
REMARK  161  A    between atoms: _369  and  _372
REMARK  162  A    between atoms: _372  and  _373
REMARK  163  A    between atoms: _375  and  _377
REMARK  164  A    between atoms: _377  and  _378
REMARK  165  A    between atoms: _380  and  _382
REMARK  166  A    between atoms: _382  and  _383
REMARK  167  A    between atoms: _385  and  _387
REMARK  168  A    between atoms: _387  and  _388
REMARK  169  A    between atoms: _387  and  _390
REMARK  170  A    between atoms: _390  and  _391
REMARK  171  A    between atoms: _396  and  _398
REMARK  172  A    between atoms: _398  and  _399
REMARK  173  A    between atoms: _398  and  _401
REMARK  174  A    between atoms: _401  and  _402
REMARK  175  A    between atoms: _405  and  _407
REMARK  176  A    between atoms: _407  and  _408
REMARK  177  A    between atoms: _407  and  _410
REMARK  178  A    between atoms: _413  and  _415
REMARK  179  A    between atoms: _415  and  _416
REMARK  180  A    between atoms: _415  and  _418
REMARK  181  A    between atoms: _418  and  _419
REMARK  182  A    between atoms: _421  and  _423
REMARK  183  A    between atoms: _423  and  _424
REMARK  184  A    between atoms: _423  and  _426
REMARK  185  A    between atoms: _426  and  _427
REMARK  186  A    between atoms: _437  and  _439
REMARK  187  A    between atoms: _439  and  _440
REMARK  188  A    between atoms: _442  and  _444
REMARK  189  A    between atoms: _444  and  _445
REMARK  190  A    between atoms: _444  and  _447
REMARK  191  A    between atoms: _447  and  _448
REMARK  192  A    between atoms: _448  and  _449
REMARK  193  A    between atoms: _452  and  _454
REMARK  194  A    between atoms: _454  and  _455
REMARK  195  A    between atoms: _457  and  _459
REMARK  196  A    between atoms: _459  and  _460
REMARK  197  A    between atoms: _459  and  _462
REMARK  198  A    between atoms: _462  and  _463
REMARK  199  A    between atoms: _464  and  _466
REMARK  200  A    between atoms: _466  and  _467
REMARK  201  A    between atoms: _470  and  _472
REMARK  202  A    between atoms: _472  and  _473
REMARK  203  A    between atoms: _472  and  _475
REMARK  204  A    between atoms: _475  and  _476
REMARK  205  A    between atoms: _476  and  _477
REMARK  206  A    between atoms: _477  and  _478
REMARK  207  A    between atoms: _487  and  _489
REMARK  208  A    between atoms: _489  and  _490
REMARK  209  A    between atoms: _489  and  _492
REMARK  210  A    between atoms: _492  and  _493
REMARK  211  A    between atoms: _498  and  _499
REMARK  212  A    between atoms: _501  and  _503
REMARK  213  A    between atoms: _503  and  _504
REMARK  214  A    between atoms: _506  and  _508
REMARK  215  A    between atoms: _508  and  _509
REMARK  216  A    between atoms: _508  and  _511
REMARK  217  A    between atoms: _511  and  _512
REMARK  218  A    between atoms: _515  and  _517
REMARK  219  A    between atoms: _517  and  _518
REMARK  220  A    between atoms: _517  and  _520
REMARK  221  A    between atoms: _520  and  _521
REMARK  222  A    between atoms: _526  and  _527
REMARK  223  A    between atoms: _529  and  _531
REMARK  224  A    between atoms: _531  and  _532
REMARK  225  A    between atoms: _531  and  _534
REMARK  226  A    between atoms: _534  and  _535
REMARK                            x       y       z     vdW  Elec       q    Type
REMARK                         _______ _______ _______ _____ _____    ______ ____
ROOT
ATOM      1  O   HOH     1       9.041  70.341  -3.019  0.00  0.00    +0.000 OA
ENDROOT
TORSDOF 0
REMARK  Name = ../refined-set-2016/2xc0/2xc0_pocket.pdb
REMARK  226 active torsions:
REMARK  status: ('A' for Active; 'I' for Inactive)
REMARK    1  A    between atoms: _1  and  _5
REMARK    2  A    between atoms: _5  and  _6
REMARK    3  A    between atoms: _5  and  _8
REMARK    4  A    between atoms: _8  and  _9
REMARK    5  A    between atoms: _12  and  _14
REMARK    6  A    between atoms: _14  and  _15
REMARK    7  A    between atoms: _14  and  _17
REMARK    8  A    between atoms: _20  and  _22
REMARK    9  A    between atoms: _22  and  _23
REMARK   10  A    between atoms: _22  and  _25
REMARK   11  A    between atoms: _25  and  _26
REMARK   12  A    between atoms: _26  and  _55
REMARK   13  A    between atoms: _27  and  _29
REMARK   14  A    between atoms: _29  and  _30
REMARK   15  A    between atoms: _32  and  _34
REMARK   16  A    between atoms: _34  and  _35
REMARK   17  A    between atoms: _38  and  _40
REMARK   18  A    between atoms: _40  and  _41
REMARK   19  A    between atoms: _40  and  _43
REMARK   20  A    between atoms: _43  and  _44
REMARK   21  A    between atoms: _49  and  _51
REMARK   22  A    between atoms: _51  and  _52
REMARK   23  A    between atoms: _51  and  _54
REMARK   24  A    between atoms: _54  and  _55
REMARK   25  A    between atoms: _56  and  _58
REMARK   26  A    between atoms: _58  and  _59
REMARK   27  A    between atoms: _58  and  _61
REMARK   28  A    between atoms: _61  and  _62
REMARK   29  A    between atoms: _62  and  _63
REMARK   30  A    between atoms: _68  and  _70
REMARK   31  A    between atoms: _70  and  _71
REMARK   32  A    between atoms: _70  and  _73
REMARK   33  A    between atoms: _73  and  _74
REMARK   34  A    between atoms: _80  and  _82
REMARK   35  A    between atoms: _82  and  _83
REMARK   36  A    between atoms: _82  and  _85
REMARK   37  A    between atoms: _85  and  _86
REMARK   38  A    between atoms: _89  and  _91
REMARK   39  A    between atoms: _91  and  _92
REMARK   40  A    between atoms: _91  and  _94
REMARK   41  A    between atoms: _94  and  _95
REMARK   42  A    between atoms: _95  and  _96
REMARK   43  A    between atoms: _96  and  _97
REMARK   44  A    between atoms: _97  and  _98
REMARK   45  A    between atoms: _102  and  _104
REMARK   46  A    between atoms: _104  and  _105
REMARK   47  A    between atoms: _104  and  _107
REMARK   48  A    between atoms: _107  and  _108
REMARK   49  A    between atoms: _108  and  _109
REMARK   50  A    between atoms: _112  and  _114
REMARK   51  A    between atoms: _114  and  _115
REMARK   52  A    between atoms: _114  and  _117
REMARK   53  A    between atoms: _117  and  _118
REMARK   54  A    between atoms: _121  and  _123
REMARK   55  A    between atoms: _123  and  _124
REMARK   56  A    between atoms: _123  and  _126
REMARK   57  A    between atoms: _126  and  _127
REMARK   58  A    between atoms: _132  and  _133
REMARK   59  A    between atoms: _135  and  _137
REMARK   60  A    between atoms: _137  and  _138
REMARK   61  A    between atoms: _137  and  _140
REMARK   62  A    between atoms: _140  and  _141
REMARK   63  A    between atoms: _144  and  _146
REMARK   64  A    between atoms: _146  and  _147
REMARK   65  A    between atoms: _146  and  _149
REMARK   66  A    between atoms: _149  and  _150
REMARK   67  A    between atoms: _153  and  _155
REMARK   68  A    between atoms: _155  and  _156
REMARK   69  A    between atoms: _155  and  _158
REMARK   70  A    between atoms: _161  and  _163
REMARK   71  A    between atoms: _163  and  _164
REMARK   72  A    between atoms: _163  and  _166
REMARK   73  A    between atoms: _166  and  _167
REMARK   74  A    between atoms: _167  and  _168
REMARK   75  A    between atoms: _168  and  _169
REMARK   76  A    between atoms: _178  and  _180
REMARK   77  A    between atoms: _180  and  _181
REMARK   78  A    between atoms: _180  and  _183
REMARK   79  A    between atoms: _183  and  _184
REMARK   80  A    between atoms: _189  and  _191
REMARK   81  A    between atoms: _191  and  _192
REMARK   82  A    between atoms: _191  and  _194
REMARK   83  A    between atoms: _194  and  _195
REMARK   84  A    between atoms: _195  and  _196
REMARK   85  A    between atoms: _199  and  _201
REMARK   86  A    between atoms: _201  and  _202
REMARK   87  A    between atoms: _201  and  _204
REMARK   88  A    between atoms: _204  and  _205
REMARK   89  A    between atoms: _205  and  _206
REMARK   90  A    between atoms: _206  and  _207
REMARK   91  A    between atoms: _207  and  _208
REMARK   92  A    between atoms: _212  and  _214
REMARK   93  A    between atoms: _214  and  _215
REMARK   94  A    between atoms: _217  and  _219
REMARK   95  A    between atoms: _219  and  _220
REMARK   96  A    between atoms: _219  and  _222
REMARK   97  A    between atoms: _225  and  _227
REMARK   98  A    between atoms: _227  and  _228
REMARK   99  A    between atoms: _227  and  _230
REMARK  100  A    between atoms: _230  and  _231
REMARK  101  A    between atoms: _233  and  _235
REMARK  102  A    between atoms: _235  and  _236
REMARK  103  A    between atoms: _235  and  _238
REMARK  104  A    between atoms: _238  and  _239
REMARK  105  A    between atoms: _241  and  _243
REMARK  106  A    between atoms: _243  and  _244
REMARK  107  A    between atoms: _243  and  _246
REMARK  108  A    between atoms: _246  and  _247
REMARK  109  A    between atoms: _253  and  _255
REMARK  110  A    between atoms: _255  and  _256
REMARK  111  A    between atoms: _255  and  _258
REMARK  112  A    between atoms: _258  and  _259
REMARK  113  A    between atoms: _262  and  _264
REMARK  114  A    between atoms: _264  and  _265
REMARK  115  A    between atoms: _264  and  _267
REMARK  116  A    between atoms: _267  and  _268
REMARK  117  A    between atoms: _271  and  _273
REMARK  118  A    between atoms: _273  and  _274
REMARK  119  A    between atoms: _273  and  _276
REMARK  120  A    between atoms: _276  and  _277
REMARK  121  A    between atoms: _280  and  _282
REMARK  122  A    between atoms: _282  and  _283
REMARK  123  A    between atoms: _282  and  _285
REMARK  124  A    between atoms: _285  and  _286
REMARK  125  A    between atoms: _286  and  _287
REMARK  126  A    between atoms: _289  and  _291
REMARK  127  A    between atoms: _291  and  _292
REMARK  128  A    between atoms: _291  and  _294
REMARK  129  A    between atoms: _294  and  _295
REMARK  130  A    between atoms: _301  and  _303
REMARK  131  A    between atoms: _303  and  _304
REMARK  132  A    between atoms: _303  and  _306
REMARK  133  A    between atoms: _308  and  _310
REMARK  134  A    between atoms: _310  and  _311
REMARK  135  A    between atoms: _314  and  _316
REMARK  136  A    between atoms: _316  and  _317
REMARK  137  A    between atoms: _319  and  _321
REMARK  138  A    between atoms: _321  and  _322
REMARK  139  A    between atoms: _321  and  _324
REMARK  140  A    between atoms: _324  and  _325
REMARK  141  A    between atoms: _328  and  _330
REMARK  142  A    between atoms: _330  and  _331
REMARK  143  A    between atoms: _334  and  _336
REMARK  144  A    between atoms: _336  and  _337
REMARK  145  A    between atoms: _336  and  _339
REMARK  146  A    between atoms: _339  and  _340
REMARK  147  A    between atoms: _340  and  _463
REMARK  148  A    between atoms: _341  and  _343
REMARK  149  A    between atoms: _343  and  _344
REMARK  150  A    between atoms: _343  and  _346
REMARK  151  A    between atoms: _346  and  _347
REMARK  152  A    between atoms: _347  and  _348
REMARK  153  A    between atoms: _353  and  _355
REMARK  154  A    between atoms: _355  and  _356
REMARK  155  A    between atoms: _358  and  _360
REMARK  156  A    between atoms: _360  and  _361
REMARK  157  A    between atoms: _360  and  _363
REMARK  158  A    between atoms: _363  and  _364
REMARK  159  A    between atoms: _367  and  _369
REMARK  160  A    between atoms: _369  and  _370
REMARK  161  A    between atoms: _369  and  _372
REMARK  162  A    between atoms: _372  and  _373
REMARK  163  A    between atoms: _375  and  _377
REMARK  164  A    between atoms: _377  and  _378
REMARK  165  A    between atoms: _380  and  _382
REMARK  166  A    between atoms: _382  and  _383
REMARK  167  A    between atoms: _385  and  _387
REMARK  168  A    between atoms: _387  and  _388
REMARK  169  A    between atoms: _387  and  _390
REMARK  170  A    between atoms: _390  and  _391
REMARK  171  A    between atoms: _396  and  _398
REMARK  172  A    between atoms: _398  and  _399
REMARK  173  A    between atoms: _398  and  _401
REMARK  174  A    between atoms: _401  and  _402
REMARK  175  A    between atoms: _405  and  _407
REMARK  176  A    between atoms: _407  and  _408
REMARK  177  A    between atoms: _407  and  _410
REMARK  178  A    between atoms: _413  and  _415
REMARK  179  A    between atoms: _415  and  _416
REMARK  180  A    between atoms: _415  and  _418
REMARK  181  A    between atoms: _418  and  _419
REMARK  182  A    between atoms: _421  and  _423
REMARK  183  A    between atoms: _423  and  _424
REMARK  184  A    between atoms: _423  and  _426
REMARK  185  A    between atoms: _426  and  _427
REMARK  186  A    between atoms: _437  and  _439
REMARK  187  A    between atoms: _439  and  _440
REMARK  188  A    between atoms: _442  and  _444
REMARK  189  A    between atoms: _444  and  _445
REMARK  190  A    between atoms: _444  and  _447
REMARK  191  A    between atoms: _447  and  _448
REMARK  192  A    between atoms: _448  and  _449
REMARK  193  A    between atoms: _452  and  _454
REMARK  194  A    between atoms: _454  and  _455
REMARK  195  A    between atoms: _457  and  _459
REMARK  196  A    between atoms: _459  and  _460
REMARK  197  A    between atoms: _459  and  _462
REMARK  198  A    between atoms: _462  and  _463
REMARK  199  A    between atoms: _464  and  _466
REMARK  200  A    between atoms: _466  and  _467
REMARK  201  A    between atoms: _470  and  _472
REMARK  202  A    between atoms: _472  and  _473
REMARK  203  A    between atoms: _472  and  _475
REMARK  204  A    between atoms: _475  and  _476
REMARK  205  A    between atoms: _476  and  _477
REMARK  206  A    between atoms: _477  and  _478
REMARK  207  A    between atoms: _487  and  _489
REMARK  208  A    between atoms: _489  and  _490
REMARK  209  A    between atoms: _489  and  _492
REMARK  210  A    between atoms: _492  and  _493
REMARK  211  A    between atoms: _498  and  _499
REMARK  212  A    between atoms: _501  and  _503
REMARK  213  A    between atoms: _503  and  _504
REMARK  214  A    between atoms: _506  and  _508
REMARK  215  A    between atoms: _508  and  _509
REMARK  216  A    between atoms: _508  and  _511
REMARK  217  A    between atoms: _511  and  _512
REMARK  218  A    between atoms: _515  and  _517
REMARK  219  A    between atoms: _517  and  _518
REMARK  220  A    between atoms: _517  and  _520
REMARK  221  A    between atoms: _520  and  _521
REMARK  222  A    between atoms: _526  and  _527
REMARK  223  A    between atoms: _529  and  _531
REMARK  224  A    between atoms: _531  and  _532
REMARK  225  A    between atoms: _531  and  _534
REMARK  226  A    between atoms: _534  and  _535
REMARK                            x       y       z     vdW  Elec       q    Type
REMARK                         _______ _______ _______ _____ _____    ______ ____
ROOT
ATOM      1  O   HOH     1      15.555  66.433  -1.977  0.00  0.00    +0.000 OA
ENDROOT
TORSDOF 0
REMARK  Name = ../refined-set-2016/2xc0/2xc0_pocket.pdb
REMARK  226 active torsions:
REMARK  status: ('A' for Active; 'I' for Inactive)
REMARK    1  A    between atoms: _1  and  _5
REMARK    2  A    between atoms: _5  and  _6
REMARK    3  A    between atoms: _5  and  _8
REMARK    4  A    between atoms: _8  and  _9
REMARK    5  A    between atoms: _12  and  _14
REMARK    6  A    between atoms: _14  and  _15
REMARK    7  A    between atoms: _14  and  _17
REMARK    8  A    between atoms: _20  and  _22
REMARK    9  A    between atoms: _22  and  _23
REMARK   10  A    between atoms: _22  and  _25
REMARK   11  A    between atoms: _25  and  _26
REMARK   12  A    between atoms: _26  and  _55
REMARK   13  A    between atoms: _27  and  _29
REMARK   14  A    between atoms: _29  and  _30
REMARK   15  A    between atoms: _32  and  _34
REMARK   16  A    between atoms: _34  and  _35
REMARK   17  A    between atoms: _38  and  _40
REMARK   18  A    between atoms: _40  and  _41
REMARK   19  A    between atoms: _40  and  _43
REMARK   20  A    between atoms: _43  and  _44
REMARK   21  A    between atoms: _49  and  _51
REMARK   22  A    between atoms: _51  and  _52
REMARK   23  A    between atoms: _51  and  _54
REMARK   24  A    between atoms: _54  and  _55
REMARK   25  A    between atoms: _56  and  _58
REMARK   26  A    between atoms: _58  and  _59
REMARK   27  A    between atoms: _58  and  _61
REMARK   28  A    between atoms: _61  and  _62
REMARK   29  A    between atoms: _62  and  _63
REMARK   30  A    between atoms: _68  and  _70
REMARK   31  A    between atoms: _70  and  _71
REMARK   32  A    between atoms: _70  and  _73
REMARK   33  A    between atoms: _73  and  _74
REMARK   34  A    between atoms: _80  and  _82
REMARK   35  A    between atoms: _82  and  _83
REMARK   36  A    between atoms: _82  and  _85
REMARK   37  A    between atoms: _85  and  _86
REMARK   38  A    between atoms: _89  and  _91
REMARK   39  A    between atoms: _91  and  _92
REMARK   40  A    between atoms: _91  and  _94
REMARK   41  A    between atoms: _94  and  _95
REMARK   42  A    between atoms: _95  and  _96
REMARK   43  A    between atoms: _96  and  _97
REMARK   44  A    between atoms: _97  and  _98
REMARK   45  A    between atoms: _102  and  _104
REMARK   46  A    between atoms: _104  and  _105
REMARK   47  A    between atoms: _104  and  _107
REMARK   48  A    between atoms: _107  and  _108
REMARK   49  A    between atoms: _108  and  _109
REMARK   50  A    between atoms: _112  and  _114
REMARK   51  A    between atoms: _114  and  _115
REMARK   52  A    between atoms: _114  and  _117
REMARK   53  A    between atoms: _117  and  _118
REMARK   54  A    between atoms: _121  and  _123
REMARK   55  A    between atoms: _123  and  _124
REMARK   56  A    between atoms: _123  and  _126
REMARK   57  A    between atoms: _126  and  _127
REMARK   58  A    between atoms: _132  and  _133
REMARK   59  A    between atoms: _135  and  _137
REMARK   60  A    between atoms: _137  and  _138
REMARK   61  A    between atoms: _137  and  _140
REMARK   62  A    between atoms: _140  and  _141
REMARK   63  A    between atoms: _144  and  _146
REMARK   64  A    between atoms: _146  and  _147
REMARK   65  A    between atoms: _146  and  _149
REMARK   66  A    between atoms: _149  and  _150
REMARK   67  A    between atoms: _153  and  _155
REMARK   68  A    between atoms: _155  and  _156
REMARK   69  A    between atoms: _155  and  _158
REMARK   70  A    between atoms: _161  and  _163
REMARK   71  A    between atoms: _163  and  _164
REMARK   72  A    between atoms: _163  and  _166
REMARK   73  A    between atoms: _166  and  _167
REMARK   74  A    between atoms: _167  and  _168
REMARK   75  A    between atoms: _168  and  _169
REMARK   76  A    between atoms: _178  and  _180
REMARK   77  A    between atoms: _180  and  _181
REMARK   78  A    between atoms: _180  and  _183
REMARK   79  A    between atoms: _183  and  _184
REMARK   80  A    between atoms: _189  and  _191
REMARK   81  A    between atoms: _191  and  _192
REMARK   82  A    between atoms: _191  and  _194
REMARK   83  A    between atoms: _194  and  _195
REMARK   84  A    between atoms: _195  and  _196
REMARK   85  A    between atoms: _199  and  _201
REMARK   86  A    between atoms: _201  and  _202
REMARK   87  A    between atoms: _201  and  _204
REMARK   88  A    between atoms: _204  and  _205
REMARK   89  A    between atoms: _205  and  _206
REMARK   90  A    between atoms: _206  and  _207
REMARK   91  A    between atoms: _207  and  _208
REMARK   92  A    between atoms: _212  and  _214
REMARK   93  A    between atoms: _214  and  _215
REMARK   94  A    between atoms: _217  and  _219
REMARK   95  A    between atoms: _219  and  _220
REMARK   96  A    between atoms: _219  and  _222
REMARK   97  A    between atoms: _225  and  _227
REMARK   98  A    between atoms: _227  and  _228
REMARK   99  A    between atoms: _227  and  _230
REMARK  100  A    between atoms: _230  and  _231
REMARK  101  A    between atoms: _233  and  _235
REMARK  102  A    between atoms: _235  and  _236
REMARK  103  A    between atoms: _235  and  _238
REMARK  104  A    between atoms: _238  and  _239
REMARK  105  A    between atoms: _241  and  _243
REMARK  106  A    between atoms: _243  and  _244
REMARK  107  A    between atoms: _243  and  _246
REMARK  108  A    between atoms: _246  and  _247
REMARK  109  A    between atoms: _253  and  _255
REMARK  110  A    between atoms: _255  and  _256
REMARK  111  A    between atoms: _255  and  _258
REMARK  112  A    between atoms: _258  and  _259
REMARK  113  A    between atoms: _262  and  _264
REMARK  114  A    between atoms: _264  and  _265
REMARK  115  A    between atoms: _264  and  _267
REMARK  116  A    between atoms: _267  and  _268
REMARK  117  A    between atoms: _271  and  _273
REMARK  118  A    between atoms: _273  and  _274
REMARK  119  A    between atoms: _273  and  _276
REMARK  120  A    between atoms: _276  and  _277
REMARK  121  A    between atoms: _280  and  _282
REMARK  122  A    between atoms: _282  and  _283
REMARK  123  A    between atoms: _282  and  _285
REMARK  124  A    between atoms: _285  and  _286
REMARK  125  A    between atoms: _286  and  _287
REMARK  126  A    between atoms: _289  and  _291
REMARK  127  A    between atoms: _291  and  _292
REMARK  128  A    between atoms: _291  and  _294
REMARK  129  A    between atoms: _294  and  _295
REMARK  130  A    between atoms: _301  and  _303
REMARK  131  A    between atoms: _303  and  _304
REMARK  132  A    between atoms: _303  and  _306
REMARK  133  A    between atoms: _308  and  _310
REMARK  134  A    between atoms: _310  and  _311
REMARK  135  A    between atoms: _314  and  _316
REMARK  136  A    between atoms: _316  and  _317
REMARK  137  A    between atoms: _319  and  _321
REMARK  138  A    between atoms: _321  and  _322
REMARK  139  A    between atoms: _321  and  _324
REMARK  140  A    between atoms: _324  and  _325
REMARK  141  A    between atoms: _328  and  _330
REMARK  142  A    between atoms: _330  and  _331
REMARK  143  A    between atoms: _334  and  _336
REMARK  144  A    between atoms: _336  and  _337
REMARK  145  A    between atoms: _336  and  _339
REMARK  146  A    between atoms: _339  and  _340
REMARK  147  A    between atoms: _340  and  _463
REMARK  148  A    between atoms: _341  and  _343
REMARK  149  A    between atoms: _343  and  _344
REMARK  150  A    between atoms: _343  and  _346
REMARK  151  A    between atoms: _346  and  _347
REMARK  152  A    between atoms: _347  and  _348
REMARK  153  A    between atoms: _353  and  _355
REMARK  154  A    between atoms: _355  and  _356
REMARK  155  A    between atoms: _358  and  _360
REMARK  156  A    between atoms: _360  and  _361
REMARK  157  A    between atoms: _360  and  _363
REMARK  158  A    between atoms: _363  and  _364
REMARK  159  A    between atoms: _367  and  _369
REMARK  160  A    between atoms: _369  and  _370
REMARK  161  A    between atoms: _369  and  _372
REMARK  162  A    between atoms: _372  and  _373
REMARK  163  A    between atoms: _375  and  _377
REMARK  164  A    between atoms: _377  and  _378
REMARK  165  A    between atoms: _380  and  _382
REMARK  166  A    between atoms: _382  and  _383
REMARK  167  A    between atoms: _385  and  _387
REMARK  168  A    between atoms: _387  and  _388
REMARK  169  A    between atoms: _387  and  _390
REMARK  170  A    between atoms: _390  and  _391
REMARK  171  A    between atoms: _396  and  _398
REMARK  172  A    between atoms: _398  and  _399
REMARK  173  A    between atoms: _398  and  _401
REMARK  174  A    between atoms: _401  and  _402
REMARK  175  A    between atoms: _405  and  _407
REMARK  176  A    between atoms: _407  and  _408
REMARK  177  A    between atoms: _407  and  _410
REMARK  178  A    between atoms: _413  and  _415
REMARK  179  A    between atoms: _415  and  _416
REMARK  180  A    between atoms: _415  and  _418
REMARK  181  A    between atoms: _418  and  _419
REMARK  182  A    between atoms: _421  and  _423
REMARK  183  A    between atoms: _423  and  _424
REMARK  184  A    between atoms: _423  and  _426
REMARK  185  A    between atoms: _426  and  _427
REMARK  186  A    between atoms: _437  and  _439
REMARK  187  A    between atoms: _439  and  _440
REMARK  188  A    between atoms: _442  and  _444
REMARK  189  A    between atoms: _444  and  _445
REMARK  190  A    between atoms: _444  and  _447
REMARK  191  A    between atoms: _447  and  _448
REMARK  192  A    between atoms: _448  and  _449
REMARK  193  A    between atoms: _452  and  _454
REMARK  194  A    between atoms: _454  and  _455
REMARK  195  A    between atoms: _457  and  _459
REMARK  196  A    between atoms: _459  and  _460
REMARK  197  A    between atoms: _459  and  _462
REMARK  198  A    between atoms: _462  and  _463
REMARK  199  A    between atoms: _464  and  _466
REMARK  200  A    between atoms: _466  and  _467
REMARK  201  A    between atoms: _470  and  _472
REMARK  202  A    between atoms: _472  and  _473
REMARK  203  A    between atoms: _472  and  _475
REMARK  204  A    between atoms: _475  and  _476
REMARK  205  A    between atoms: _476  and  _477
REMARK  206  A    between atoms: _477  and  _478
REMARK  207  A    between atoms: _487  and  _489
REMARK  208  A    between atoms: _489  and  _490
REMARK  209  A    between atoms: _489  and  _492
REMARK  210  A    between atoms: _492  and  _493
REMARK  211  A    between atoms: _498  and  _499
REMARK  212  A    between atoms: _501  and  _503
REMARK  213  A    between atoms: _503  and  _504
REMARK  214  A    between atoms: _506  and  _508
REMARK  215  A    between atoms: _508  and  _509
REMARK  216  A    between atoms: _508  and  _511
REMARK  217  A    between atoms: _511  and  _512
REMARK  218  A    between atoms: _515  and  _517
REMARK  219  A    between atoms: _517  and  _518
REMARK  220  A    between atoms: _517  and  _520
REMARK  221  A    between atoms: _520  and  _521
REMARK  222  A    between atoms: _526  and  _527
REMARK  223  A    between atoms: _529  and  _531
REMARK  224  A    between atoms: _531  and  _532
REMARK  225  A    between atoms: _531  and  _534
REMARK  226  A    between atoms: _534  and  _535
REMARK                            x       y       z     vdW  Elec       q    Type
REMARK                         _______ _______ _______ _____ _____    ______ ____
ROOT
ATOM      1  O   HOH     1      13.309  63.359   0.963  0.00  0.00    +0.000 OA
ENDROOT
TORSDOF 0
REMARK  Name = ../refined-set-2016/2xc0/2xc0_pocket.pdb
REMARK  226 active torsions:
REMARK  status: ('A' for Active; 'I' for Inactive)
REMARK    1  A    between atoms: _1  and  _5
REMARK    2  A    between atoms: _5  and  _6
REMARK    3  A    between atoms: _5  and  _8
REMARK    4  A    between atoms: _8  and  _9
REMARK    5  A    between atoms: _12  and  _14
REMARK    6  A    between atoms: _14  and  _15
REMARK    7  A    between atoms: _14  and  _17
REMARK    8  A    between atoms: _20  and  _22
REMARK    9  A    between atoms: _22  and  _23
REMARK   10  A    between atoms: _22  and  _25
REMARK   11  A    between atoms: _25  and  _26
REMARK   12  A    between atoms: _26  and  _55
REMARK   13  A    between atoms: _27  and  _29
REMARK   14  A    between atoms: _29  and  _30
REMARK   15  A    between atoms: _32  and  _34
REMARK   16  A    between atoms: _34  and  _35
REMARK   17  A    between atoms: _38  and  _40
REMARK   18  A    between atoms: _40  and  _41
REMARK   19  A    between atoms: _40  and  _43
REMARK   20  A    between atoms: _43  and  _44
REMARK   21  A    between atoms: _49  and  _51
REMARK   22  A    between atoms: _51  and  _52
REMARK   23  A    between atoms: _51  and  _54
REMARK   24  A    between atoms: _54  and  _55
REMARK   25  A    between atoms: _56  and  _58
REMARK   26  A    between atoms: _58  and  _59
REMARK   27  A    between atoms: _58  and  _61
REMARK   28  A    between atoms: _61  and  _62
REMARK   29  A    between atoms: _62  and  _63
REMARK   30  A    between atoms: _68  and  _70
REMARK   31  A    between atoms: _70  and  _71
REMARK   32  A    between atoms: _70  and  _73
REMARK   33  A    between atoms: _73  and  _74
REMARK   34  A    between atoms: _80  and  _82
REMARK   35  A    between atoms: _82  and  _83
REMARK   36  A    between atoms: _82  and  _85
REMARK   37  A    between atoms: _85  and  _86
REMARK   38  A    between atoms: _89  and  _91
REMARK   39  A    between atoms: _91  and  _92
REMARK   40  A    between atoms: _91  and  _94
REMARK   41  A    between atoms: _94  and  _95
REMARK   42  A    between atoms: _95  and  _96
REMARK   43  A    between atoms: _96  and  _97
REMARK   44  A    between atoms: _97  and  _98
REMARK   45  A    between atoms: _102  and  _104
REMARK   46  A    between atoms: _104  and  _105
REMARK   47  A    between atoms: _104  and  _107
REMARK   48  A    between atoms: _107  and  _108
REMARK   49  A    between atoms: _108  and  _109
REMARK   50  A    between atoms: _112  and  _114
REMARK   51  A    between atoms: _114  and  _115
REMARK   52  A    between atoms: _114  and  _117
REMARK   53  A    between atoms: _117  and  _118
REMARK   54  A    between atoms: _121  and  _123
REMARK   55  A    between atoms: _123  and  _124
REMARK   56  A    between atoms: _123  and  _126
REMARK   57  A    between atoms: _126  and  _127
REMARK   58  A    between atoms: _132  and  _133
REMARK   59  A    between atoms: _135  and  _137
REMARK   60  A    between atoms: _137  and  _138
REMARK   61  A    between atoms: _137  and  _140
REMARK   62  A    between atoms: _140  and  _141
REMARK   63  A    between atoms: _144  and  _146
REMARK   64  A    between atoms: _146  and  _147
REMARK   65  A    between atoms: _146  and  _149
REMARK   66  A    between atoms: _149  and  _150
REMARK   67  A    between atoms: _153  and  _155
REMARK   68  A    between atoms: _155  and  _156
REMARK   69  A    between atoms: _155  and  _158
REMARK   70  A    between atoms: _161  and  _163
REMARK   71  A    between atoms: _163  and  _164
REMARK   72  A    between atoms: _163  and  _166
REMARK   73  A    between atoms: _166  and  _167
REMARK   74  A    between atoms: _167  and  _168
REMARK   75  A    between atoms: _168  and  _169
REMARK   76  A    between atoms: _178  and  _180
REMARK   77  A    between atoms: _180  and  _181
REMARK   78  A    between atoms: _180  and  _183
REMARK   79  A    between atoms: _183  and  _184
REMARK   80  A    between atoms: _189  and  _191
REMARK   81  A    between atoms: _191  and  _192
REMARK   82  A    between atoms: _191  and  _194
REMARK   83  A    between atoms: _194  and  _195
REMARK   84  A    between atoms: _195  and  _196
REMARK   85  A    between atoms: _199  and  _201
REMARK   86  A    between atoms: _201  and  _202
REMARK   87  A    between atoms: _201  and  _204
REMARK   88  A    between atoms: _204  and  _205
REMARK   89  A    between atoms: _205  and  _206
REMARK   90  A    between atoms: _206  and  _207
REMARK   91  A    between atoms: _207  and  _208
REMARK   92  A    between atoms: _212  and  _214
REMARK   93  A    between atoms: _214  and  _215
REMARK   94  A    between atoms: _217  and  _219
REMARK   95  A    between atoms: _219  and  _220
REMARK   96  A    between atoms: _219  and  _222
REMARK   97  A    between atoms: _225  and  _227
REMARK   98  A    between atoms: _227  and  _228
REMARK   99  A    between atoms: _227  and  _230
REMARK  100  A    between atoms: _230  and  _231
REMARK  101  A    between atoms: _233  and  _235
REMARK  102  A    between atoms: _235  and  _236
REMARK  103  A    between atoms: _235  and  _238
REMARK  104  A    between atoms: _238  and  _239
REMARK  105  A    between atoms: _241  and  _243
REMARK  106  A    between atoms: _243  and  _244
REMARK  107  A    between atoms: _243  and  _246
REMARK  108  A    between atoms: _246  and  _247
REMARK  109  A    between atoms: _253  and  _255
REMARK  110  A    between atoms: _255  and  _256
REMARK  111  A    between atoms: _255  and  _258
REMARK  112  A    between atoms: _258  and  _259
REMARK  113  A    between atoms: _262  and  _264
REMARK  114  A    between atoms: _264  and  _265
REMARK  115  A    between atoms: _264  and  _267
REMARK  116  A    between atoms: _267  and  _268
REMARK  117  A    between atoms: _271  and  _273
REMARK  118  A    between atoms: _273  and  _274
REMARK  119  A    between atoms: _273  and  _276
REMARK  120  A    between atoms: _276  and  _277
REMARK  121  A    between atoms: _280  and  _282
REMARK  122  A    between atoms: _282  and  _283
REMARK  123  A    between atoms: _282  and  _285
REMARK  124  A    between atoms: _285  and  _286
REMARK  125  A    between atoms: _286  and  _287
REMARK  126  A    between atoms: _289  and  _291
REMARK  127  A    between atoms: _291  and  _292
REMARK  128  A    between atoms: _291  and  _294
REMARK  129  A    between atoms: _294  and  _295
REMARK  130  A    between atoms: _301  and  _303
REMARK  131  A    between atoms: _303  and  _304
REMARK  132  A    between atoms: _303  and  _306
REMARK  133  A    between atoms: _308  and  _310
REMARK  134  A    between atoms: _310  and  _311
REMARK  135  A    between atoms: _314  and  _316
REMARK  136  A    between atoms: _316  and  _317
REMARK  137  A    between atoms: _319  and  _321
REMARK  138  A    between atoms: _321  and  _322
REMARK  139  A    between atoms: _321  and  _324
REMARK  140  A    between atoms: _324  and  _325
REMARK  141  A    between atoms: _328  and  _330
REMARK  142  A    between atoms: _330  and  _331
REMARK  143  A    between atoms: _334  and  _336
REMARK  144  A    between atoms: _336  and  _337
REMARK  145  A    between atoms: _336  and  _339
REMARK  146  A    between atoms: _339  and  _340
REMARK  147  A    between atoms: _340  and  _463
REMARK  148  A    between atoms: _341  and  _343
REMARK  149  A    between atoms: _343  and  _344
REMARK  150  A    between atoms: _343  and  _346
REMARK  151  A    between atoms: _346  and  _347
REMARK  152  A    between atoms: _347  and  _348
REMARK  153  A    between atoms: _353  and  _355
REMARK  154  A    between atoms: _355  and  _356
REMARK  155  A    between atoms: _358  and  _360
REMARK  156  A    between atoms: _360  and  _361
REMARK  157  A    between atoms: _360  and  _363
REMARK  158  A    between atoms: _363  and  _364
REMARK  159  A    between atoms: _367  and  _369
REMARK  160  A    between atoms: _369  and  _370
REMARK  161  A    between atoms: _369  and  _372
REMARK  162  A    between atoms: _372  and  _373
REMARK  163  A    between atoms: _375  and  _377
REMARK  164  A    between atoms: _377  and  _378
REMARK  165  A    between atoms: _380  and  _382
REMARK  166  A    between atoms: _382  and  _383
REMARK  167  A    between atoms: _385  and  _387
REMARK  168  A    between atoms: _387  and  _388
REMARK  169  A    between atoms: _387  and  _390
REMARK  170  A    between atoms: _390  and  _391
REMARK  171  A    between atoms: _396  and  _398
REMARK  172  A    between atoms: _398  and  _399
REMARK  173  A    between atoms: _398  and  _401
REMARK  174  A    between atoms: _401  and  _402
REMARK  175  A    between atoms: _405  and  _407
REMARK  176  A    between atoms: _407  and  _408
REMARK  177  A    between atoms: _407  and  _410
REMARK  178  A    between atoms: _413  and  _415
REMARK  179  A    between atoms: _415  and  _416
REMARK  180  A    between atoms: _415  and  _418
REMARK  181  A    between atoms: _418  and  _419
REMARK  182  A    between atoms: _421  and  _423
REMARK  183  A    between atoms: _423  and  _424
REMARK  184  A    between atoms: _423  and  _426
REMARK  185  A    between atoms: _426  and  _427
REMARK  186  A    between atoms: _437  and  _439
REMARK  187  A    between atoms: _439  and  _440
REMARK  188  A    between atoms: _442  and  _444
REMARK  189  A    between atoms: _444  and  _445
REMARK  190  A    between atoms: _444  and  _447
REMARK  191  A    between atoms: _447  and  _448
REMARK  192  A    between atoms: _448  and  _449
REMARK  193  A    between atoms: _452  and  _454
REMARK  194  A    between atoms: _454  and  _455
REMARK  195  A    between atoms: _457  and  _459
REMARK  196  A    between atoms: _459  and  _460
REMARK  197  A    between atoms: _459  and  _462
REMARK  198  A    between atoms: _462  and  _463
REMARK  199  A    between atoms: _464  and  _466
REMARK  200  A    between atoms: _466  and  _467
REMARK  201  A    between atoms: _470  and  _472
REMARK  202  A    between atoms: _472  and  _473
REMARK  203  A    between atoms: _472  and  _475
REMARK  204  A    between atoms: _475  and  _476
REMARK  205  A    between atoms: _476  and  _477
REMARK  206  A    between atoms: _477  and  _478
REMARK  207  A    between atoms: _487  and  _489
REMARK  208  A    between atoms: _489  and  _490
REMARK  209  A    between atoms: _489  and  _492
REMARK  210  A    between atoms: _492  and  _493
REMARK  211  A    between atoms: _498  and  _499
REMARK  212  A    between atoms: _501  and  _503
REMARK  213  A    between atoms: _503  and  _504
REMARK  214  A    between atoms: _506  and  _508
REMARK  215  A    between atoms: _508  and  _509
REMARK  216  A    between atoms: _508  and  _511
REMARK  217  A    between atoms: _511  and  _512
REMARK  218  A    between atoms: _515  and  _517
REMARK  219  A    between atoms: _517  and  _518
REMARK  220  A    between atoms: _517  and  _520
REMARK  221  A    between atoms: _520  and  _521
REMARK  222  A    between atoms: _526  and  _527
REMARK  223  A    between atoms: _529  and  _531
REMARK  224  A    between atoms: _531  and  _532
REMARK  225  A    between atoms: _531  and  _534
REMARK  226  A    between atoms: _534  and  _535
REMARK                            x       y       z     vdW  Elec       q    Type
REMARK                         _______ _______ _______ _____ _____    ______ ____
ROOT
ATOM      1  O   HOH     1       8.179  59.797  10.715  0.00  0.00    +0.000 OA
ENDROOT
TORSDOF 0
REMARK  Name = ../refined-set-2016/2xc0/2xc0_pocket.pdb
REMARK  226 active torsions:
REMARK  status: ('A' for Active; 'I' for Inactive)
REMARK    1  A    between atoms: _1  and  _5
REMARK    2  A    between atoms: _5  and  _6
REMARK    3  A    between atoms: _5  and  _8
REMARK    4  A    between atoms: _8  and  _9
REMARK    5  A    between atoms: _12  and  _14
REMARK    6  A    between atoms: _14  and  _15
REMARK    7  A    between atoms: _14  and  _17
REMARK    8  A    between atoms: _20  and  _22
REMARK    9  A    between atoms: _22  and  _23
REMARK   10  A    between atoms: _22  and  _25
REMARK   11  A    between atoms: _25  and  _26
REMARK   12  A    between atoms: _26  and  _55
REMARK   13  A    between atoms: _27  and  _29
REMARK   14  A    between atoms: _29  and  _30
REMARK   15  A    between atoms: _32  and  _34
REMARK   16  A    between atoms: _34  and  _35
REMARK   17  A    between atoms: _38  and  _40
REMARK   18  A    between atoms: _40  and  _41
REMARK   19  A    between atoms: _40  and  _43
REMARK   20  A    between atoms: _43  and  _44
REMARK   21  A    between atoms: _49  and  _51
REMARK   22  A    between atoms: _51  and  _52
REMARK   23  A    between atoms: _51  and  _54
REMARK   24  A    between atoms: _54  and  _55
REMARK   25  A    between atoms: _56  and  _58
REMARK   26  A    between atoms: _58  and  _59
REMARK   27  A    between atoms: _58  and  _61
REMARK   28  A    between atoms: _61  and  _62
REMARK   29  A    between atoms: _62  and  _63
REMARK   30  A    between atoms: _68  and  _70
REMARK   31  A    between atoms: _70  and  _71
REMARK   32  A    between atoms: _70  and  _73
REMARK   33  A    between atoms: _73  and  _74
REMARK   34  A    between atoms: _80  and  _82
REMARK   35  A    between atoms: _82  and  _83
REMARK   36  A    between atoms: _82  and  _85
REMARK   37  A    between atoms: _85  and  _86
REMARK   38  A    between atoms: _89  and  _91
REMARK   39  A    between atoms: _91  and  _92
REMARK   40  A    between atoms: _91  and  _94
REMARK   41  A    between atoms: _94  and  _95
REMARK   42  A    between atoms: _95  and  _96
REMARK   43  A    between atoms: _96  and  _97
REMARK   44  A    between atoms: _97  and  _98
REMARK   45  A    between atoms: _102  and  _104
REMARK   46  A    between atoms: _104  and  _105
REMARK   47  A    between atoms: _104  and  _107
REMARK   48  A    between atoms: _107  and  _108
REMARK   49  A    between atoms: _108  and  _109
REMARK   50  A    between atoms: _112  and  _114
REMARK   51  A    between atoms: _114  and  _115
REMARK   52  A    between atoms: _114  and  _117
REMARK   53  A    between atoms: _117  and  _118
REMARK   54  A    between atoms: _121  and  _123
REMARK   55  A    between atoms: _123  and  _124
REMARK   56  A    between atoms: _123  and  _126
REMARK   57  A    between atoms: _126  and  _127
REMARK   58  A    between atoms: _132  and  _133
REMARK   59  A    between atoms: _135  and  _137
REMARK   60  A    between atoms: _137  and  _138
REMARK   61  A    between atoms: _137  and  _140
REMARK   62  A    between atoms: _140  and  _141
REMARK   63  A    between atoms: _144  and  _146
REMARK   64  A    between atoms: _146  and  _147
REMARK   65  A    between atoms: _146  and  _149
REMARK   66  A    between atoms: _149  and  _150
REMARK   67  A    between atoms: _153  and  _155
REMARK   68  A    between atoms: _155  and  _156
REMARK   69  A    between atoms: _155  and  _158
REMARK   70  A    between atoms: _161  and  _163
REMARK   71  A    between atoms: _163  and  _164
REMARK   72  A    between atoms: _163  and  _166
REMARK   73  A    between atoms: _166  and  _167
REMARK   74  A    between atoms: _167  and  _168
REMARK   75  A    between atoms: _168  and  _169
REMARK   76  A    between atoms: _178  and  _180
REMARK   77  A    between atoms: _180  and  _181
REMARK   78  A    between atoms: _180  and  _183
REMARK   79  A    between atoms: _183  and  _184
REMARK   80  A    between atoms: _189  and  _191
REMARK   81  A    between atoms: _191  and  _192
REMARK   82  A    between atoms: _191  and  _194
REMARK   83  A    between atoms: _194  and  _195
REMARK   84  A    between atoms: _195  and  _196
REMARK   85  A    between atoms: _199  and  _201
REMARK   86  A    between atoms: _201  and  _202
REMARK   87  A    between atoms: _201  and  _204
REMARK   88  A    between atoms: _204  and  _205
REMARK   89  A    between atoms: _205  and  _206
REMARK   90  A    between atoms: _206  and  _207
REMARK   91  A    between atoms: _207  and  _208
REMARK   92  A    between atoms: _212  and  _214
REMARK   93  A    between atoms: _214  and  _215
REMARK   94  A    between atoms: _217  and  _219
REMARK   95  A    between atoms: _219  and  _220
REMARK   96  A    between atoms: _219  and  _222
REMARK   97  A    between atoms: _225  and  _227
REMARK   98  A    between atoms: _227  and  _228
REMARK   99  A    between atoms: _227  and  _230
REMARK  100  A    between atoms: _230  and  _231
REMARK  101  A    between atoms: _233  and  _235
REMARK  102  A    between atoms: _235  and  _236
REMARK  103  A    between atoms: _235  and  _238
REMARK  104  A    between atoms: _238  and  _239
REMARK  105  A    between atoms: _241  and  _243
REMARK  106  A    between atoms: _243  and  _244
REMARK  107  A    between atoms: _243  and  _246
REMARK  108  A    between atoms: _246  and  _247
REMARK  109  A    between atoms: _253  and  _255
REMARK  110  A    between atoms: _255  and  _256
REMARK  111  A    between atoms: _255  and  _258
REMARK  112  A    between atoms: _258  and  _259
REMARK  113  A    between atoms: _262  and  _264
REMARK  114  A    between atoms: _264  and  _265
REMARK  115  A    between atoms: _264  and  _267
REMARK  116  A    between atoms: _267  and  _268
REMARK  117  A    between atoms: _271  and  _273
REMARK  118  A    between atoms: _273  and  _274
REMARK  119  A    between atoms: _273  and  _276
REMARK  120  A    between atoms: _276  and  _277
REMARK  121  A    between atoms: _280  and  _282
REMARK  122  A    between atoms: _282  and  _283
REMARK  123  A    between atoms: _282  and  _285
REMARK  124  A    between atoms: _285  and  _286
REMARK  125  A    between atoms: _286  and  _287
REMARK  126  A    between atoms: _289  and  _291
REMARK  127  A    between atoms: _291  and  _292
REMARK  128  A    between atoms: _291  and  _294
REMARK  129  A    between atoms: _294  and  _295
REMARK  130  A    between atoms: _301  and  _303
REMARK  131  A    between atoms: _303  and  _304
REMARK  132  A    between atoms: _303  and  _306
REMARK  133  A    between atoms: _308  and  _310
REMARK  134  A    between atoms: _310  and  _311
REMARK  135  A    between atoms: _314  and  _316
REMARK  136  A    between atoms: _316  and  _317
REMARK  137  A    between atoms: _319  and  _321
REMARK  138  A    between atoms: _321  and  _322
REMARK  139  A    between atoms: _321  and  _324
REMARK  140  A    between atoms: _324  and  _325
REMARK  141  A    between atoms: _328  and  _330
REMARK  142  A    between atoms: _330  and  _331
REMARK  143  A    between atoms: _334  and  _336
REMARK  144  A    between atoms: _336  and  _337
REMARK  145  A    between atoms: _336  and  _339
REMARK  146  A    between atoms: _339  and  _340
REMARK  147  A    between atoms: _340  and  _463
REMARK  148  A    between atoms: _341  and  _343
REMARK  149  A    between atoms: _343  and  _344
REMARK  150  A    between atoms: _343  and  _346
REMARK  151  A    between atoms: _346  and  _347
REMARK  152  A    between atoms: _347  and  _348
REMARK  153  A    between atoms: _353  and  _355
REMARK  154  A    between atoms: _355  and  _356
REMARK  155  A    between atoms: _358  and  _360
REMARK  156  A    between atoms: _360  and  _361
REMARK  157  A    between atoms: _360  and  _363
REMARK  158  A    between atoms: _363  and  _364
REMARK  159  A    between atoms: _367  and  _369
REMARK  160  A    between atoms: _369  and  _370
REMARK  161  A    between atoms: _369  and  _372
REMARK  162  A    between atoms: _372  and  _373
REMARK  163  A    between atoms: _375  and  _377
REMARK  164  A    between atoms: _377  and  _378
REMARK  165  A    between atoms: _380  and  _382
REMARK  166  A    between atoms: _382  and  _383
REMARK  167  A    between atoms: _385  and  _387
REMARK  168  A    between atoms: _387  and  _388
REMARK  169  A    between atoms: _387  and  _390
REMARK  170  A    between atoms: _390  and  _391
REMARK  171  A    between atoms: _396  and  _398
REMARK  172  A    between atoms: _398  and  _399
REMARK  173  A    between atoms: _398  and  _401
REMARK  174  A    between atoms: _401  and  _402
REMARK  175  A    between atoms: _405  and  _407
REMARK  176  A    between atoms: _407  and  _408
REMARK  177  A    between atoms: _407  and  _410
REMARK  178  A    between atoms: _413  and  _415
REMARK  179  A    between atoms: _415  and  _416
REMARK  180  A    between atoms: _415  and  _418
REMARK  181  A    between atoms: _418  and  _419
REMARK  182  A    between atoms: _421  and  _423
REMARK  183  A    between atoms: _423  and  _424
REMARK  184  A    between atoms: _423  and  _426
REMARK  185  A    between atoms: _426  and  _427
REMARK  186  A    between atoms: _437  and  _439
REMARK  187  A    between atoms: _439  and  _440
REMARK  188  A    between atoms: _442  and  _444
REMARK  189  A    between atoms: _444  and  _445
REMARK  190  A    between atoms: _444  and  _447
REMARK  191  A    between atoms: _447  and  _448
REMARK  192  A    between atoms: _448  and  _449
REMARK  193  A    between atoms: _452  and  _454
REMARK  194  A    between atoms: _454  and  _455
REMARK  195  A    between atoms: _457  and  _459
REMARK  196  A    between atoms: _459  and  _460
REMARK  197  A    between atoms: _459  and  _462
REMARK  198  A    between atoms: _462  and  _463
REMARK  199  A    between atoms: _464  and  _466
REMARK  200  A    between atoms: _466  and  _467
REMARK  201  A    between atoms: _470  and  _472
REMARK  202  A    between atoms: _472  and  _473
REMARK  203  A    between atoms: _472  and  _475
REMARK  204  A    between atoms: _475  and  _476
REMARK  205  A    between atoms: _476  and  _477
REMARK  206  A    between atoms: _477  and  _478
REMARK  207  A    between atoms: _487  and  _489
REMARK  208  A    between atoms: _489  and  _490
REMARK  209  A    between atoms: _489  and  _492
REMARK  210  A    between atoms: _492  and  _493
REMARK  211  A    between atoms: _498  and  _499
REMARK  212  A    between atoms: _501  and  _503
REMARK  213  A    between atoms: _503  and  _504
REMARK  214  A    between atoms: _506  and  _508
REMARK  215  A    between atoms: _508  and  _509
REMARK  216  A    between atoms: _508  and  _511
REMARK  217  A    between atoms: _511  and  _512
REMARK  218  A    between atoms: _515  and  _517
REMARK  219  A    between atoms: _517  and  _518
REMARK  220  A    between atoms: _517  and  _520
REMARK  221  A    between atoms: _520  and  _521
REMARK  222  A    between atoms: _526  and  _527
REMARK  223  A    between atoms: _529  and  _531
REMARK  224  A    between atoms: _531  and  _532
REMARK  225  A    between atoms: _531  and  _534
REMARK  226  A    between atoms: _534  and  _535
REMARK                            x       y       z     vdW  Elec       q    Type
REMARK                         _______ _______ _______ _____ _____    ______ ____
ROOT
ATOM      1  O   HOH     1      10.498  66.519  10.919  0.00  0.00    +0.000 OA
ENDROOT
TORSDOF 0
REMARK  Name = ../refined-set-2016/2xc0/2xc0_pocket.pdb
REMARK  226 active torsions:
REMARK  status: ('A' for Active; 'I' for Inactive)
REMARK    1  A    between atoms: _1  and  _5
REMARK    2  A    between atoms: _5  and  _6
REMARK    3  A    between atoms: _5  and  _8
REMARK    4  A    between atoms: _8  and  _9
REMARK    5  A    between atoms: _12  and  _14
REMARK    6  A    between atoms: _14  and  _15
REMARK    7  A    between atoms: _14  and  _17
REMARK    8  A    between atoms: _20  and  _22
REMARK    9  A    between atoms: _22  and  _23
REMARK   10  A    between atoms: _22  and  _25
REMARK   11  A    between atoms: _25  and  _26
REMARK   12  A    between atoms: _26  and  _55
REMARK   13  A    between atoms: _27  and  _29
REMARK   14  A    between atoms: _29  and  _30
REMARK   15  A    between atoms: _32  and  _34
REMARK   16  A    between atoms: _34  and  _35
REMARK   17  A    between atoms: _38  and  _40
REMARK   18  A    between atoms: _40  and  _41
REMARK   19  A    between atoms: _40  and  _43
REMARK   20  A    between atoms: _43  and  _44
REMARK   21  A    between atoms: _49  and  _51
REMARK   22  A    between atoms: _51  and  _52
REMARK   23  A    between atoms: _51  and  _54
REMARK   24  A    between atoms: _54  and  _55
REMARK   25  A    between atoms: _56  and  _58
REMARK   26  A    between atoms: _58  and  _59
REMARK   27  A    between atoms: _58  and  _61
REMARK   28  A    between atoms: _61  and  _62
REMARK   29  A    between atoms: _62  and  _63
REMARK   30  A    between atoms: _68  and  _70
REMARK   31  A    between atoms: _70  and  _71
REMARK   32  A    between atoms: _70  and  _73
REMARK   33  A    between atoms: _73  and  _74
REMARK   34  A    between atoms: _80  and  _82
REMARK   35  A    between atoms: _82  and  _83
REMARK   36  A    between atoms: _82  and  _85
REMARK   37  A    between atoms: _85  and  _86
REMARK   38  A    between atoms: _89  and  _91
REMARK   39  A    between atoms: _91  and  _92
REMARK   40  A    between atoms: _91  and  _94
REMARK   41  A    between atoms: _94  and  _95
REMARK   42  A    between atoms: _95  and  _96
REMARK   43  A    between atoms: _96  and  _97
REMARK   44  A    between atoms: _97  and  _98
REMARK   45  A    between atoms: _102  and  _104
REMARK   46  A    between atoms: _104  and  _105
REMARK   47  A    between atoms: _104  and  _107
REMARK   48  A    between atoms: _107  and  _108
REMARK   49  A    between atoms: _108  and  _109
REMARK   50  A    between atoms: _112  and  _114
REMARK   51  A    between atoms: _114  and  _115
REMARK   52  A    between atoms: _114  and  _117
REMARK   53  A    between atoms: _117  and  _118
REMARK   54  A    between atoms: _121  and  _123
REMARK   55  A    between atoms: _123  and  _124
REMARK   56  A    between atoms: _123  and  _126
REMARK   57  A    between atoms: _126  and  _127
REMARK   58  A    between atoms: _132  and  _133
REMARK   59  A    between atoms: _135  and  _137
REMARK   60  A    between atoms: _137  and  _138
REMARK   61  A    between atoms: _137  and  _140
REMARK   62  A    between atoms: _140  and  _141
REMARK   63  A    between atoms: _144  and  _146
REMARK   64  A    between atoms: _146  and  _147
REMARK   65  A    between atoms: _146  and  _149
REMARK   66  A    between atoms: _149  and  _150
REMARK   67  A    between atoms: _153  and  _155
REMARK   68  A    between atoms: _155  and  _156
REMARK   69  A    between atoms: _155  and  _158
REMARK   70  A    between atoms: _161  and  _163
REMARK   71  A    between atoms: _163  and  _164
REMARK   72  A    between atoms: _163  and  _166
REMARK   73  A    between atoms: _166  and  _167
REMARK   74  A    between atoms: _167  and  _168
REMARK   75  A    between atoms: _168  and  _169
REMARK   76  A    between atoms: _178  and  _180
REMARK   77  A    between atoms: _180  and  _181
REMARK   78  A    between atoms: _180  and  _183
REMARK   79  A    between atoms: _183  and  _184
REMARK   80  A    between atoms: _189  and  _191
REMARK   81  A    between atoms: _191  and  _192
REMARK   82  A    between atoms: _191  and  _194
REMARK   83  A    between atoms: _194  and  _195
REMARK   84  A    between atoms: _195  and  _196
REMARK   85  A    between atoms: _199  and  _201
REMARK   86  A    between atoms: _201  and  _202
REMARK   87  A    between atoms: _201  and  _204
REMARK   88  A    between atoms: _204  and  _205
REMARK   89  A    between atoms: _205  and  _206
REMARK   90  A    between atoms: _206  and  _207
REMARK   91  A    between atoms: _207  and  _208
REMARK   92  A    between atoms: _212  and  _214
REMARK   93  A    between atoms: _214  and  _215
REMARK   94  A    between atoms: _217  and  _219
REMARK   95  A    between atoms: _219  and  _220
REMARK   96  A    between atoms: _219  and  _222
REMARK   97  A    between atoms: _225  and  _227
REMARK   98  A    between atoms: _227  and  _228
REMARK   99  A    between atoms: _227  and  _230
REMARK  100  A    between atoms: _230  and  _231
REMARK  101  A    between atoms: _233  and  _235
REMARK  102  A    between atoms: _235  and  _236
REMARK  103  A    between atoms: _235  and  _238
REMARK  104  A    between atoms: _238  and  _239
REMARK  105  A    between atoms: _241  and  _243
REMARK  106  A    between atoms: _243  and  _244
REMARK  107  A    between atoms: _243  and  _246
REMARK  108  A    between atoms: _246  and  _247
REMARK  109  A    between atoms: _253  and  _255
REMARK  110  A    between atoms: _255  and  _256
REMARK  111  A    between atoms: _255  and  _258
REMARK  112  A    between atoms: _258  and  _259
REMARK  113  A    between atoms: _262  and  _264
REMARK  114  A    between atoms: _264  and  _265
REMARK  115  A    between atoms: _264  and  _267
REMARK  116  A    between atoms: _267  and  _268
REMARK  117  A    between atoms: _271  and  _273
REMARK  118  A    between atoms: _273  and  _274
REMARK  119  A    between atoms: _273  and  _276
REMARK  120  A    between atoms: _276  and  _277
REMARK  121  A    between atoms: _280  and  _282
REMARK  122  A    between atoms: _282  and  _283
REMARK  123  A    between atoms: _282  and  _285
REMARK  124  A    between atoms: _285  and  _286
REMARK  125  A    between atoms: _286  and  _287
REMARK  126  A    between atoms: _289  and  _291
REMARK  127  A    between atoms: _291  and  _292
REMARK  128  A    between atoms: _291  and  _294
REMARK  129  A    between atoms: _294  and  _295
REMARK  130  A    between atoms: _301  and  _303
REMARK  131  A    between atoms: _303  and  _304
REMARK  132  A    between atoms: _303  and  _306
REMARK  133  A    between atoms: _308  and  _310
REMARK  134  A    between atoms: _310  and  _311
REMARK  135  A    between atoms: _314  and  _316
REMARK  136  A    between atoms: _316  and  _317
REMARK  137  A    between atoms: _319  and  _321
REMARK  138  A    between atoms: _321  and  _322
REMARK  139  A    between atoms: _321  and  _324
REMARK  140  A    between atoms: _324  and  _325
REMARK  141  A    between atoms: _328  and  _330
REMARK  142  A    between atoms: _330  and  _331
REMARK  143  A    between atoms: _334  and  _336
REMARK  144  A    between atoms: _336  and  _337
REMARK  145  A    between atoms: _336  and  _339
REMARK  146  A    between atoms: _339  and  _340
REMARK  147  A    between atoms: _340  and  _463
REMARK  148  A    between atoms: _341  and  _343
REMARK  149  A    between atoms: _343  and  _344
REMARK  150  A    between atoms: _343  and  _346
REMARK  151  A    between atoms: _346  and  _347
REMARK  152  A    between atoms: _347  and  _348
REMARK  153  A    between atoms: _353  and  _355
REMARK  154  A    between atoms: _355  and  _356
REMARK  155  A    between atoms: _358  and  _360
REMARK  156  A    between atoms: _360  and  _361
REMARK  157  A    between atoms: _360  and  _363
REMARK  158  A    between atoms: _363  and  _364
REMARK  159  A    between atoms: _367  and  _369
REMARK  160  A    between atoms: _369  and  _370
REMARK  161  A    between atoms: _369  and  _372
REMARK  162  A    between atoms: _372  and  _373
REMARK  163  A    between atoms: _375  and  _377
REMARK  164  A    between atoms: _377  and  _378
REMARK  165  A    between atoms: _380  and  _382
REMARK  166  A    between atoms: _382  and  _383
REMARK  167  A    between atoms: _385  and  _387
REMARK  168  A    between atoms: _387  and  _388
REMARK  169  A    between atoms: _387  and  _390
REMARK  170  A    between atoms: _390  and  _391
REMARK  171  A    between atoms: _396  and  _398
REMARK  172  A    between atoms: _398  and  _399
REMARK  173  A    between atoms: _398  and  _401
REMARK  174  A    between atoms: _401  and  _402
REMARK  175  A    between atoms: _405  and  _407
REMARK  176  A    between atoms: _407  and  _408
REMARK  177  A    between atoms: _407  and  _410
REMARK  178  A    between atoms: _413  and  _415
REMARK  179  A    between atoms: _415  and  _416
REMARK  180  A    between atoms: _415  and  _418
REMARK  181  A    between atoms: _418  and  _419
REMARK  182  A    between atoms: _421  and  _423
REMARK  183  A    between atoms: _423  and  _424
REMARK  184  A    between atoms: _423  and  _426
REMARK  185  A    between atoms: _426  and  _427
REMARK  186  A    between atoms: _437  and  _439
REMARK  187  A    between atoms: _439  and  _440
REMARK  188  A    between atoms: _442  and  _444
REMARK  189  A    between atoms: _444  and  _445
REMARK  190  A    between atoms: _444  and  _447
REMARK  191  A    between atoms: _447  and  _448
REMARK  192  A    between atoms: _448  and  _449
REMARK  193  A    between atoms: _452  and  _454
REMARK  194  A    between atoms: _454  and  _455
REMARK  195  A    between atoms: _457  and  _459
REMARK  196  A    between atoms: _459  and  _460
REMARK  197  A    between atoms: _459  and  _462
REMARK  198  A    between atoms: _462  and  _463
REMARK  199  A    between atoms: _464  and  _466
REMARK  200  A    between atoms: _466  and  _467
REMARK  201  A    between atoms: _470  and  _472
REMARK  202  A    between atoms: _472  and  _473
REMARK  203  A    between atoms: _472  and  _475
REMARK  204  A    between atoms: _475  and  _476
REMARK  205  A    between atoms: _476  and  _477
REMARK  206  A    between atoms: _477  and  _478
REMARK  207  A    between atoms: _487  and  _489
REMARK  208  A    between atoms: _489  and  _490
REMARK  209  A    between atoms: _489  and  _492
REMARK  210  A    between atoms: _492  and  _493
REMARK  211  A    between atoms: _498  and  _499
REMARK  212  A    between atoms: _501  and  _503
REMARK  213  A    between atoms: _503  and  _504
REMARK  214  A    between atoms: _506  and  _508
REMARK  215  A    between atoms: _508  and  _509
REMARK  216  A    between atoms: _508  and  _511
REMARK  217  A    between atoms: _511  and  _512
REMARK  218  A    between atoms: _515  and  _517
REMARK  219  A    between atoms: _517  and  _518
REMARK  220  A    between atoms: _517  and  _520
REMARK  221  A    between atoms: _520  and  _521
REMARK  222  A    between atoms: _526  and  _527
REMARK  223  A    between atoms: _529  and  _531
REMARK  224  A    between atoms: _531  and  _532
REMARK  225  A    between atoms: _531  and  _534
REMARK  226  A    between atoms: _534  and  _535
REMARK                            x       y       z     vdW  Elec       q    Type
REMARK                         _______ _______ _______ _____ _____    ______ ____
ROOT
ATOM      1  O   HOH     1       9.570  61.990  10.191  0.00  0.00    +0.000 OA
ENDROOT
TORSDOF 0
REMARK  Name = ../refined-set-2016/2xc0/2xc0_pocket.pdb
REMARK  226 active torsions:
REMARK  status: ('A' for Active; 'I' for Inactive)
REMARK    1  A    between atoms: _1  and  _5
REMARK    2  A    between atoms: _5  and  _6
REMARK    3  A    between atoms: _5  and  _8
REMARK    4  A    between atoms: _8  and  _9
REMARK    5  A    between atoms: _12  and  _14
REMARK    6  A    between atoms: _14  and  _15
REMARK    7  A    between atoms: _14  and  _17
REMARK    8  A    between atoms: _20  and  _22
REMARK    9  A    between atoms: _22  and  _23
REMARK   10  A    between atoms: _22  and  _25
REMARK   11  A    between atoms: _25  and  _26
REMARK   12  A    between atoms: _26  and  _55
REMARK   13  A    between atoms: _27  and  _29
REMARK   14  A    between atoms: _29  and  _30
REMARK   15  A    between atoms: _32  and  _34
REMARK   16  A    between atoms: _34  and  _35
REMARK   17  A    between atoms: _38  and  _40
REMARK   18  A    between atoms: _40  and  _41
REMARK   19  A    between atoms: _40  and  _43
REMARK   20  A    between atoms: _43  and  _44
REMARK   21  A    between atoms: _49  and  _51
REMARK   22  A    between atoms: _51  and  _52
REMARK   23  A    between atoms: _51  and  _54
REMARK   24  A    between atoms: _54  and  _55
REMARK   25  A    between atoms: _56  and  _58
REMARK   26  A    between atoms: _58  and  _59
REMARK   27  A    between atoms: _58  and  _61
REMARK   28  A    between atoms: _61  and  _62
REMARK   29  A    between atoms: _62  and  _63
REMARK   30  A    between atoms: _68  and  _70
REMARK   31  A    between atoms: _70  and  _71
REMARK   32  A    between atoms: _70  and  _73
REMARK   33  A    between atoms: _73  and  _74
REMARK   34  A    between atoms: _80  and  _82
REMARK   35  A    between atoms: _82  and  _83
REMARK   36  A    between atoms: _82  and  _85
REMARK   37  A    between atoms: _85  and  _86
REMARK   38  A    between atoms: _89  and  _91
REMARK   39  A    between atoms: _91  and  _92
REMARK   40  A    between atoms: _91  and  _94
REMARK   41  A    between atoms: _94  and  _95
REMARK   42  A    between atoms: _95  and  _96
REMARK   43  A    between atoms: _96  and  _97
REMARK   44  A    between atoms: _97  and  _98
REMARK   45  A    between atoms: _102  and  _104
REMARK   46  A    between atoms: _104  and  _105
REMARK   47  A    between atoms: _104  and  _107
REMARK   48  A    between atoms: _107  and  _108
REMARK   49  A    between atoms: _108  and  _109
REMARK   50  A    between atoms: _112  and  _114
REMARK   51  A    between atoms: _114  and  _115
REMARK   52  A    between atoms: _114  and  _117
REMARK   53  A    between atoms: _117  and  _118
REMARK   54  A    between atoms: _121  and  _123
REMARK   55  A    between atoms: _123  and  _124
REMARK   56  A    between atoms: _123  and  _126
REMARK   57  A    between atoms: _126  and  _127
REMARK   58  A    between atoms: _132  and  _133
REMARK   59  A    between atoms: _135  and  _137
REMARK   60  A    between atoms: _137  and  _138
REMARK   61  A    between atoms: _137  and  _140
REMARK   62  A    between atoms: _140  and  _141
REMARK   63  A    between atoms: _144  and  _146
REMARK   64  A    between atoms: _146  and  _147
REMARK   65  A    between atoms: _146  and  _149
REMARK   66  A    between atoms: _149  and  _150
REMARK   67  A    between atoms: _153  and  _155
REMARK   68  A    between atoms: _155  and  _156
REMARK   69  A    between atoms: _155  and  _158
REMARK   70  A    between atoms: _161  and  _163
REMARK   71  A    between atoms: _163  and  _164
REMARK   72  A    between atoms: _163  and  _166
REMARK   73  A    between atoms: _166  and  _167
REMARK   74  A    between atoms: _167  and  _168
REMARK   75  A    between atoms: _168  and  _169
REMARK   76  A    between atoms: _178  and  _180
REMARK   77  A    between atoms: _180  and  _181
REMARK   78  A    between atoms: _180  and  _183
REMARK   79  A    between atoms: _183  and  _184
REMARK   80  A    between atoms: _189  and  _191
REMARK   81  A    between atoms: _191  and  _192
REMARK   82  A    between atoms: _191  and  _194
REMARK   83  A    between atoms: _194  and  _195
REMARK   84  A    between atoms: _195  and  _196
REMARK   85  A    between atoms: _199  and  _201
REMARK   86  A    between atoms: _201  and  _202
REMARK   87  A    between atoms: _201  and  _204
REMARK   88  A    between atoms: _204  and  _205
REMARK   89  A    between atoms: _205  and  _206
REMARK   90  A    between atoms: _206  and  _207
REMARK   91  A    between atoms: _207  and  _208
REMARK   92  A    between atoms: _212  and  _214
REMARK   93  A    between atoms: _214  and  _215
REMARK   94  A    between atoms: _217  and  _219
REMARK   95  A    between atoms: _219  and  _220
REMARK   96  A    between atoms: _219  and  _222
REMARK   97  A    between atoms: _225  and  _227
REMARK   98  A    between atoms: _227  and  _228
REMARK   99  A    between atoms: _227  and  _230
REMARK  100  A    between atoms: _230  and  _231
REMARK  101  A    between atoms: _233  and  _235
REMARK  102  A    between atoms: _235  and  _236
REMARK  103  A    between atoms: _235  and  _238
REMARK  104  A    between atoms: _238  and  _239
REMARK  105  A    between atoms: _241  and  _243
REMARK  106  A    between atoms: _243  and  _244
REMARK  107  A    between atoms: _243  and  _246
REMARK  108  A    between atoms: _246  and  _247
REMARK  109  A    between atoms: _253  and  _255
REMARK  110  A    between atoms: _255  and  _256
REMARK  111  A    between atoms: _255  and  _258
REMARK  112  A    between atoms: _258  and  _259
REMARK  113  A    between atoms: _262  and  _264
REMARK  114  A    between atoms: _264  and  _265
REMARK  115  A    between atoms: _264  and  _267
REMARK  116  A    between atoms: _267  and  _268
REMARK  117  A    between atoms: _271  and  _273
REMARK  118  A    between atoms: _273  and  _274
REMARK  119  A    between atoms: _273  and  _276
REMARK  120  A    between atoms: _276  and  _277
REMARK  121  A    between atoms: _280  and  _282
REMARK  122  A    between atoms: _282  and  _283
REMARK  123  A    between atoms: _282  and  _285
REMARK  124  A    between atoms: _285  and  _286
REMARK  125  A    between atoms: _286  and  _287
REMARK  126  A    between atoms: _289  and  _291
REMARK  127  A    between atoms: _291  and  _292
REMARK  128  A    between atoms: _291  and  _294
REMARK  129  A    between atoms: _294  and  _295
REMARK  130  A    between atoms: _301  and  _303
REMARK  131  A    between atoms: _303  and  _304
REMARK  132  A    between atoms: _303  and  _306
REMARK  133  A    between atoms: _308  and  _310
REMARK  134  A    between atoms: _310  and  _311
REMARK  135  A    between atoms: _314  and  _316
REMARK  136  A    between atoms: _316  and  _317
REMARK  137  A    between atoms: _319  and  _321
REMARK  138  A    between atoms: _321  and  _322
REMARK  139  A    between atoms: _321  and  _324
REMARK  140  A    between atoms: _324  and  _325
REMARK  141  A    between atoms: _328  and  _330
REMARK  142  A    between atoms: _330  and  _331
REMARK  143  A    between atoms: _334  and  _336
REMARK  144  A    between atoms: _336  and  _337
REMARK  145  A    between atoms: _336  and  _339
REMARK  146  A    between atoms: _339  and  _340
REMARK  147  A    between atoms: _340  and  _463
REMARK  148  A    between atoms: _341  and  _343
REMARK  149  A    between atoms: _343  and  _344
REMARK  150  A    between atoms: _343  and  _346
REMARK  151  A    between atoms: _346  and  _347
REMARK  152  A    between atoms: _347  and  _348
REMARK  153  A    between atoms: _353  and  _355
REMARK  154  A    between atoms: _355  and  _356
REMARK  155  A    between atoms: _358  and  _360
REMARK  156  A    between atoms: _360  and  _361
REMARK  157  A    between atoms: _360  and  _363
REMARK  158  A    between atoms: _363  and  _364
REMARK  159  A    between atoms: _367  and  _369
REMARK  160  A    between atoms: _369  and  _370
REMARK  161  A    between atoms: _369  and  _372
REMARK  162  A    between atoms: _372  and  _373
REMARK  163  A    between atoms: _375  and  _377
REMARK  164  A    between atoms: _377  and  _378
REMARK  165  A    between atoms: _380  and  _382
REMARK  166  A    between atoms: _382  and  _383
REMARK  167  A    between atoms: _385  and  _387
REMARK  168  A    between atoms: _387  and  _388
REMARK  169  A    between atoms: _387  and  _390
REMARK  170  A    between atoms: _390  and  _391
REMARK  171  A    between atoms: _396  and  _398
REMARK  172  A    between atoms: _398  and  _399
REMARK  173  A    between atoms: _398  and  _401
REMARK  174  A    between atoms: _401  and  _402
REMARK  175  A    between atoms: _405  and  _407
REMARK  176  A    between atoms: _407  and  _408
REMARK  177  A    between atoms: _407  and  _410
REMARK  178  A    between atoms: _413  and  _415
REMARK  179  A    between atoms: _415  and  _416
REMARK  180  A    between atoms: _415  and  _418
REMARK  181  A    between atoms: _418  and  _419
REMARK  182  A    between atoms: _421  and  _423
REMARK  183  A    between atoms: _423  and  _424
REMARK  184  A    between atoms: _423  and  _426
REMARK  185  A    between atoms: _426  and  _427
REMARK  186  A    between atoms: _437  and  _439
REMARK  187  A    between atoms: _439  and  _440
REMARK  188  A    between atoms: _442  and  _444
REMARK  189  A    between atoms: _444  and  _445
REMARK  190  A    between atoms: _444  and  _447
REMARK  191  A    between atoms: _447  and  _448
REMARK  192  A    between atoms: _448  and  _449
REMARK  193  A    between atoms: _452  and  _454
REMARK  194  A    between atoms: _454  and  _455
REMARK  195  A    between atoms: _457  and  _459
REMARK  196  A    between atoms: _459  and  _460
REMARK  197  A    between atoms: _459  and  _462
REMARK  198  A    between atoms: _462  and  _463
REMARK  199  A    between atoms: _464  and  _466
REMARK  200  A    between atoms: _466  and  _467
REMARK  201  A    between atoms: _470  and  _472
REMARK  202  A    between atoms: _472  and  _473
REMARK  203  A    between atoms: _472  and  _475
REMARK  204  A    between atoms: _475  and  _476
REMARK  205  A    between atoms: _476  and  _477
REMARK  206  A    between atoms: _477  and  _478
REMARK  207  A    between atoms: _487  and  _489
REMARK  208  A    between atoms: _489  and  _490
REMARK  209  A    between atoms: _489  and  _492
REMARK  210  A    between atoms: _492  and  _493
REMARK  211  A    between atoms: _498  and  _499
REMARK  212  A    between atoms: _501  and  _503
REMARK  213  A    between atoms: _503  and  _504
REMARK  214  A    between atoms: _506  and  _508
REMARK  215  A    between atoms: _508  and  _509
REMARK  216  A    between atoms: _508  and  _511
REMARK  217  A    between atoms: _511  and  _512
REMARK  218  A    between atoms: _515  and  _517
REMARK  219  A    between atoms: _517  and  _518
REMARK  220  A    between atoms: _517  and  _520
REMARK  221  A    between atoms: _520  and  _521
REMARK  222  A    between atoms: _526  and  _527
REMARK  223  A    between atoms: _529  and  _531
REMARK  224  A    between atoms: _531  and  _532
REMARK  225  A    between atoms: _531  and  _534
REMARK  226  A    between atoms: _534  and  _535
REMARK                            x       y       z     vdW  Elec       q    Type
REMARK                         _______ _______ _______ _____ _____    ______ ____
ROOT
ATOM      1  O   HOH     1       2.854  64.586  10.199  0.00  0.00    +0.000 OA
ENDROOT
TORSDOF 0
REMARK  Name = ../refined-set-2016/2xc0/2xc0_pocket.pdb
REMARK  226 active torsions:
REMARK  status: ('A' for Active; 'I' for Inactive)
REMARK    1  A    between atoms: _1  and  _5
REMARK    2  A    between atoms: _5  and  _6
REMARK    3  A    between atoms: _5  and  _8
REMARK    4  A    between atoms: _8  and  _9
REMARK    5  A    between atoms: _12  and  _14
REMARK    6  A    between atoms: _14  and  _15
REMARK    7  A    between atoms: _14  and  _17
REMARK    8  A    between atoms: _20  and  _22
REMARK    9  A    between atoms: _22  and  _23
REMARK   10  A    between atoms: _22  and  _25
REMARK   11  A    between atoms: _25  and  _26
REMARK   12  A    between atoms: _26  and  _55
REMARK   13  A    between atoms: _27  and  _29
REMARK   14  A    between atoms: _29  and  _30
REMARK   15  A    between atoms: _32  and  _34
REMARK   16  A    between atoms: _34  and  _35
REMARK   17  A    between atoms: _38  and  _40
REMARK   18  A    between atoms: _40  and  _41
REMARK   19  A    between atoms: _40  and  _43
REMARK   20  A    between atoms: _43  and  _44
REMARK   21  A    between atoms: _49  and  _51
REMARK   22  A    between atoms: _51  and  _52
REMARK   23  A    between atoms: _51  and  _54
REMARK   24  A    between atoms: _54  and  _55
REMARK   25  A    between atoms: _56  and  _58
REMARK   26  A    between atoms: _58  and  _59
REMARK   27  A    between atoms: _58  and  _61
REMARK   28  A    between atoms: _61  and  _62
REMARK   29  A    between atoms: _62  and  _63
REMARK   30  A    between atoms: _68  and  _70
REMARK   31  A    between atoms: _70  and  _71
REMARK   32  A    between atoms: _70  and  _73
REMARK   33  A    between atoms: _73  and  _74
REMARK   34  A    between atoms: _80  and  _82
REMARK   35  A    between atoms: _82  and  _83
REMARK   36  A    between atoms: _82  and  _85
REMARK   37  A    between atoms: _85  and  _86
REMARK   38  A    between atoms: _89  and  _91
REMARK   39  A    between atoms: _91  and  _92
REMARK   40  A    between atoms: _91  and  _94
REMARK   41  A    between atoms: _94  and  _95
REMARK   42  A    between atoms: _95  and  _96
REMARK   43  A    between atoms: _96  and  _97
REMARK   44  A    between atoms: _97  and  _98
REMARK   45  A    between atoms: _102  and  _104
REMARK   46  A    between atoms: _104  and  _105
REMARK   47  A    between atoms: _104  and  _107
REMARK   48  A    between atoms: _107  and  _108
REMARK   49  A    between atoms: _108  and  _109
REMARK   50  A    between atoms: _112  and  _114
REMARK   51  A    between atoms: _114  and  _115
REMARK   52  A    between atoms: _114  and  _117
REMARK   53  A    between atoms: _117  and  _118
REMARK   54  A    between atoms: _121  and  _123
REMARK   55  A    between atoms: _123  and  _124
REMARK   56  A    between atoms: _123  and  _126
REMARK   57  A    between atoms: _126  and  _127
REMARK   58  A    between atoms: _132  and  _133
REMARK   59  A    between atoms: _135  and  _137
REMARK   60  A    between atoms: _137  and  _138
REMARK   61  A    between atoms: _137  and  _140
REMARK   62  A    between atoms: _140  and  _141
REMARK   63  A    between atoms: _144  and  _146
REMARK   64  A    between atoms: _146  and  _147
REMARK   65  A    between atoms: _146  and  _149
REMARK   66  A    between atoms: _149  and  _150
REMARK   67  A    between atoms: _153  and  _155
REMARK   68  A    between atoms: _155  and  _156
REMARK   69  A    between atoms: _155  and  _158
REMARK   70  A    between atoms: _161  and  _163
REMARK   71  A    between atoms: _163  and  _164
REMARK   72  A    between atoms: _163  and  _166
REMARK   73  A    between atoms: _166  and  _167
REMARK   74  A    between atoms: _167  and  _168
REMARK   75  A    between atoms: _168  and  _169
REMARK   76  A    between atoms: _178  and  _180
REMARK   77  A    between atoms: _180  and  _181
REMARK   78  A    between atoms: _180  and  _183
REMARK   79  A    between atoms: _183  and  _184
REMARK   80  A    between atoms: _189  and  _191
REMARK   81  A    between atoms: _191  and  _192
REMARK   82  A    between atoms: _191  and  _194
REMARK   83  A    between atoms: _194  and  _195
REMARK   84  A    between atoms: _195  and  _196
REMARK   85  A    between atoms: _199  and  _201
REMARK   86  A    between atoms: _201  and  _202
REMARK   87  A    between atoms: _201  and  _204
REMARK   88  A    between atoms: _204  and  _205
REMARK   89  A    between atoms: _205  and  _206
REMARK   90  A    between atoms: _206  and  _207
REMARK   91  A    between atoms: _207  and  _208
REMARK   92  A    between atoms: _212  and  _214
REMARK   93  A    between atoms: _214  and  _215
REMARK   94  A    between atoms: _217  and  _219
REMARK   95  A    between atoms: _219  and  _220
REMARK   96  A    between atoms: _219  and  _222
REMARK   97  A    between atoms: _225  and  _227
REMARK   98  A    between atoms: _227  and  _228
REMARK   99  A    between atoms: _227  and  _230
REMARK  100  A    between atoms: _230  and  _231
REMARK  101  A    between atoms: _233  and  _235
REMARK  102  A    between atoms: _235  and  _236
REMARK  103  A    between atoms: _235  and  _238
REMARK  104  A    between atoms: _238  and  _239
REMARK  105  A    between atoms: _241  and  _243
REMARK  106  A    between atoms: _243  and  _244
REMARK  107  A    between atoms: _243  and  _246
REMARK  108  A    between atoms: _246  and  _247
REMARK  109  A    between atoms: _253  and  _255
REMARK  110  A    between atoms: _255  and  _256
REMARK  111  A    between atoms: _255  and  _258
REMARK  112  A    between atoms: _258  and  _259
REMARK  113  A    between atoms: _262  and  _264
REMARK  114  A    between atoms: _264  and  _265
REMARK  115  A    between atoms: _264  and  _267
REMARK  116  A    between atoms: _267  and  _268
REMARK  117  A    between atoms: _271  and  _273
REMARK  118  A    between atoms: _273  and  _274
REMARK  119  A    between atoms: _273  and  _276
REMARK  120  A    between atoms: _276  and  _277
REMARK  121  A    between atoms: _280  and  _282
REMARK  122  A    between atoms: _282  and  _283
REMARK  123  A    between atoms: _282  and  _285
REMARK  124  A    between atoms: _285  and  _286
REMARK  125  A    between atoms: _286  and  _287
REMARK  126  A    between atoms: _289  and  _291
REMARK  127  A    between atoms: _291  and  _292
REMARK  128  A    between atoms: _291  and  _294
REMARK  129  A    between atoms: _294  and  _295
REMARK  130  A    between atoms: _301  and  _303
REMARK  131  A    between atoms: _303  and  _304
REMARK  132  A    between atoms: _303  and  _306
REMARK  133  A    between atoms: _308  and  _310
REMARK  134  A    between atoms: _310  and  _311
REMARK  135  A    between atoms: _314  and  _316
REMARK  136  A    between atoms: _316  and  _317
REMARK  137  A    between atoms: _319  and  _321
REMARK  138  A    between atoms: _321  and  _322
REMARK  139  A    between atoms: _321  and  _324
REMARK  140  A    between atoms: _324  and  _325
REMARK  141  A    between atoms: _328  and  _330
REMARK  142  A    between atoms: _330  and  _331
REMARK  143  A    between atoms: _334  and  _336
REMARK  144  A    between atoms: _336  and  _337
REMARK  145  A    between atoms: _336  and  _339
REMARK  146  A    between atoms: _339  and  _340
REMARK  147  A    between atoms: _340  and  _463
REMARK  148  A    between atoms: _341  and  _343
REMARK  149  A    between atoms: _343  and  _344
REMARK  150  A    between atoms: _343  and  _346
REMARK  151  A    between atoms: _346  and  _347
REMARK  152  A    between atoms: _347  and  _348
REMARK  153  A    between atoms: _353  and  _355
REMARK  154  A    between atoms: _355  and  _356
REMARK  155  A    between atoms: _358  and  _360
REMARK  156  A    between atoms: _360  and  _361
REMARK  157  A    between atoms: _360  and  _363
REMARK  158  A    between atoms: _363  and  _364
REMARK  159  A    between atoms: _367  and  _369
REMARK  160  A    between atoms: _369  and  _370
REMARK  161  A    between atoms: _369  and  _372
REMARK  162  A    between atoms: _372  and  _373
REMARK  163  A    between atoms: _375  and  _377
REMARK  164  A    between atoms: _377  and  _378
REMARK  165  A    between atoms: _380  and  _382
REMARK  166  A    between atoms: _382  and  _383
REMARK  167  A    between atoms: _385  and  _387
REMARK  168  A    between atoms: _387  and  _388
REMARK  169  A    between atoms: _387  and  _390
REMARK  170  A    between atoms: _390  and  _391
REMARK  171  A    between atoms: _396  and  _398
REMARK  172  A    between atoms: _398  and  _399
REMARK  173  A    between atoms: _398  and  _401
REMARK  174  A    between atoms: _401  and  _402
REMARK  175  A    between atoms: _405  and  _407
REMARK  176  A    between atoms: _407  and  _408
REMARK  177  A    between atoms: _407  and  _410
REMARK  178  A    between atoms: _413  and  _415
REMARK  179  A    between atoms: _415  and  _416
REMARK  180  A    between atoms: _415  and  _418
REMARK  181  A    between atoms: _418  and  _419
REMARK  182  A    between atoms: _421  and  _423
REMARK  183  A    between atoms: _423  and  _424
REMARK  184  A    between atoms: _423  and  _426
REMARK  185  A    between atoms: _426  and  _427
REMARK  186  A    between atoms: _437  and  _439
REMARK  187  A    between atoms: _439  and  _440
REMARK  188  A    between atoms: _442  and  _444
REMARK  189  A    between atoms: _444  and  _445
REMARK  190  A    between atoms: _444  and  _447
REMARK  191  A    between atoms: _447  and  _448
REMARK  192  A    between atoms: _448  and  _449
REMARK  193  A    between atoms: _452  and  _454
REMARK  194  A    between atoms: _454  and  _455
REMARK  195  A    between atoms: _457  and  _459
REMARK  196  A    between atoms: _459  and  _460
REMARK  197  A    between atoms: _459  and  _462
REMARK  198  A    between atoms: _462  and  _463
REMARK  199  A    between atoms: _464  and  _466
REMARK  200  A    between atoms: _466  and  _467
REMARK  201  A    between atoms: _470  and  _472
REMARK  202  A    between atoms: _472  and  _473
REMARK  203  A    between atoms: _472  and  _475
REMARK  204  A    between atoms: _475  and  _476
REMARK  205  A    between atoms: _476  and  _477
REMARK  206  A    between atoms: _477  and  _478
REMARK  207  A    between atoms: _487  and  _489
REMARK  208  A    between atoms: _489  and  _490
REMARK  209  A    between atoms: _489  and  _492
REMARK  210  A    between atoms: _492  and  _493
REMARK  211  A    between atoms: _498  and  _499
REMARK  212  A    between atoms: _501  and  _503
REMARK  213  A    between atoms: _503  and  _504
REMARK  214  A    between atoms: _506  and  _508
REMARK  215  A    between atoms: _508  and  _509
REMARK  216  A    between atoms: _508  and  _511
REMARK  217  A    between atoms: _511  and  _512
REMARK  218  A    between atoms: _515  and  _517
REMARK  219  A    between atoms: _517  and  _518
REMARK  220  A    between atoms: _517  and  _520
REMARK  221  A    between atoms: _520  and  _521
REMARK  222  A    between atoms: _526  and  _527
REMARK  223  A    between atoms: _529  and  _531
REMARK  224  A    between atoms: _531  and  _532
REMARK  225  A    between atoms: _531  and  _534
REMARK  226  A    between atoms: _534  and  _535
REMARK                            x       y       z     vdW  Elec       q    Type
REMARK                         _______ _______ _______ _____ _____    ______ ____
ROOT
ATOM      1  O   HOH     1       5.285  69.140   5.131  0.00  0.00    +0.000 OA
ENDROOT
TORSDOF 0
REMARK  Name = ../refined-set-2016/2xc0/2xc0_pocket.pdb
REMARK  226 active torsions:
REMARK  status: ('A' for Active; 'I' for Inactive)
REMARK    1  A    between atoms: _1  and  _5
REMARK    2  A    between atoms: _5  and  _6
REMARK    3  A    between atoms: _5  and  _8
REMARK    4  A    between atoms: _8  and  _9
REMARK    5  A    between atoms: _12  and  _14
REMARK    6  A    between atoms: _14  and  _15
REMARK    7  A    between atoms: _14  and  _17
REMARK    8  A    between atoms: _20  and  _22
REMARK    9  A    between atoms: _22  and  _23
REMARK   10  A    between atoms: _22  and  _25
REMARK   11  A    between atoms: _25  and  _26
REMARK   12  A    between atoms: _26  and  _55
REMARK   13  A    between atoms: _27  and  _29
REMARK   14  A    between atoms: _29  and  _30
REMARK   15  A    between atoms: _32  and  _34
REMARK   16  A    between atoms: _34  and  _35
REMARK   17  A    between atoms: _38  and  _40
REMARK   18  A    between atoms: _40  and  _41
REMARK   19  A    between atoms: _40  and  _43
REMARK   20  A    between atoms: _43  and  _44
REMARK   21  A    between atoms: _49  and  _51
REMARK   22  A    between atoms: _51  and  _52
REMARK   23  A    between atoms: _51  and  _54
REMARK   24  A    between atoms: _54  and  _55
REMARK   25  A    between atoms: _56  and  _58
REMARK   26  A    between atoms: _58  and  _59
REMARK   27  A    between atoms: _58  and  _61
REMARK   28  A    between atoms: _61  and  _62
REMARK   29  A    between atoms: _62  and  _63
REMARK   30  A    between atoms: _68  and  _70
REMARK   31  A    between atoms: _70  and  _71
REMARK   32  A    between atoms: _70  and  _73
REMARK   33  A    between atoms: _73  and  _74
REMARK   34  A    between atoms: _80  and  _82
REMARK   35  A    between atoms: _82  and  _83
REMARK   36  A    between atoms: _82  and  _85
REMARK   37  A    between atoms: _85  and  _86
REMARK   38  A    between atoms: _89  and  _91
REMARK   39  A    between atoms: _91  and  _92
REMARK   40  A    between atoms: _91  and  _94
REMARK   41  A    between atoms: _94  and  _95
REMARK   42  A    between atoms: _95  and  _96
REMARK   43  A    between atoms: _96  and  _97
REMARK   44  A    between atoms: _97  and  _98
REMARK   45  A    between atoms: _102  and  _104
REMARK   46  A    between atoms: _104  and  _105
REMARK   47  A    between atoms: _104  and  _107
REMARK   48  A    between atoms: _107  and  _108
REMARK   49  A    between atoms: _108  and  _109
REMARK   50  A    between atoms: _112  and  _114
REMARK   51  A    between atoms: _114  and  _115
REMARK   52  A    between atoms: _114  and  _117
REMARK   53  A    between atoms: _117  and  _118
REMARK   54  A    between atoms: _121  and  _123
REMARK   55  A    between atoms: _123  and  _124
REMARK   56  A    between atoms: _123  and  _126
REMARK   57  A    between atoms: _126  and  _127
REMARK   58  A    between atoms: _132  and  _133
REMARK   59  A    between atoms: _135  and  _137
REMARK   60  A    between atoms: _137  and  _138
REMARK   61  A    between atoms: _137  and  _140
REMARK   62  A    between atoms: _140  and  _141
REMARK   63  A    between atoms: _144  and  _146
REMARK   64  A    between atoms: _146  and  _147
REMARK   65  A    between atoms: _146  and  _149
REMARK   66  A    between atoms: _149  and  _150
REMARK   67  A    between atoms: _153  and  _155
REMARK   68  A    between atoms: _155  and  _156
REMARK   69  A    between atoms: _155  and  _158
REMARK   70  A    between atoms: _161  and  _163
REMARK   71  A    between atoms: _163  and  _164
REMARK   72  A    between atoms: _163  and  _166
REMARK   73  A    between atoms: _166  and  _167
REMARK   74  A    between atoms: _167  and  _168
REMARK   75  A    between atoms: _168  and  _169
REMARK   76  A    between atoms: _178  and  _180
REMARK   77  A    between atoms: _180  and  _181
REMARK   78  A    between atoms: _180  and  _183
REMARK   79  A    between atoms: _183  and  _184
REMARK   80  A    between atoms: _189  and  _191
REMARK   81  A    between atoms: _191  and  _192
REMARK   82  A    between atoms: _191  and  _194
REMARK   83  A    between atoms: _194  and  _195
REMARK   84  A    between atoms: _195  and  _196
REMARK   85  A    between atoms: _199  and  _201
REMARK   86  A    between atoms: _201  and  _202
REMARK   87  A    between atoms: _201  and  _204
REMARK   88  A    between atoms: _204  and  _205
REMARK   89  A    between atoms: _205  and  _206
REMARK   90  A    between atoms: _206  and  _207
REMARK   91  A    between atoms: _207  and  _208
REMARK   92  A    between atoms: _212  and  _214
REMARK   93  A    between atoms: _214  and  _215
REMARK   94  A    between atoms: _217  and  _219
REMARK   95  A    between atoms: _219  and  _220
REMARK   96  A    between atoms: _219  and  _222
REMARK   97  A    between atoms: _225  and  _227
REMARK   98  A    between atoms: _227  and  _228
REMARK   99  A    between atoms: _227  and  _230
REMARK  100  A    between atoms: _230  and  _231
REMARK  101  A    between atoms: _233  and  _235
REMARK  102  A    between atoms: _235  and  _236
REMARK  103  A    between atoms: _235  and  _238
REMARK  104  A    between atoms: _238  and  _239
REMARK  105  A    between atoms: _241  and  _243
REMARK  106  A    between atoms: _243  and  _244
REMARK  107  A    between atoms: _243  and  _246
REMARK  108  A    between atoms: _246  and  _247
REMARK  109  A    between atoms: _253  and  _255
REMARK  110  A    between atoms: _255  and  _256
REMARK  111  A    between atoms: _255  and  _258
REMARK  112  A    between atoms: _258  and  _259
REMARK  113  A    between atoms: _262  and  _264
REMARK  114  A    between atoms: _264  and  _265
REMARK  115  A    between atoms: _264  and  _267
REMARK  116  A    between atoms: _267  and  _268
REMARK  117  A    between atoms: _271  and  _273
REMARK  118  A    between atoms: _273  and  _274
REMARK  119  A    between atoms: _273  and  _276
REMARK  120  A    between atoms: _276  and  _277
REMARK  121  A    between atoms: _280  and  _282
REMARK  122  A    between atoms: _282  and  _283
REMARK  123  A    between atoms: _282  and  _285
REMARK  124  A    between atoms: _285  and  _286
REMARK  125  A    between atoms: _286  and  _287
REMARK  126  A    between atoms: _289  and  _291
REMARK  127  A    between atoms: _291  and  _292
REMARK  128  A    between atoms: _291  and  _294
REMARK  129  A    between atoms: _294  and  _295
REMARK  130  A    between atoms: _301  and  _303
REMARK  131  A    between atoms: _303  and  _304
REMARK  132  A    between atoms: _303  and  _306
REMARK  133  A    between atoms: _308  and  _310
REMARK  134  A    between atoms: _310  and  _311
REMARK  135  A    between atoms: _314  and  _316
REMARK  136  A    between atoms: _316  and  _317
REMARK  137  A    between atoms: _319  and  _321
REMARK  138  A    between atoms: _321  and  _322
REMARK  139  A    between atoms: _321  and  _324
REMARK  140  A    between atoms: _324  and  _325
REMARK  141  A    between atoms: _328  and  _330
REMARK  142  A    between atoms: _330  and  _331
REMARK  143  A    between atoms: _334  and  _336
REMARK  144  A    between atoms: _336  and  _337
REMARK  145  A    between atoms: _336  and  _339
REMARK  146  A    between atoms: _339  and  _340
REMARK  147  A    between atoms: _340  and  _463
REMARK  148  A    between atoms: _341  and  _343
REMARK  149  A    between atoms: _343  and  _344
REMARK  150  A    between atoms: _343  and  _346
REMARK  151  A    between atoms: _346  and  _347
REMARK  152  A    between atoms: _347  and  _348
REMARK  153  A    between atoms: _353  and  _355
REMARK  154  A    between atoms: _355  and  _356
REMARK  155  A    between atoms: _358  and  _360
REMARK  156  A    between atoms: _360  and  _361
REMARK  157  A    between atoms: _360  and  _363
REMARK  158  A    between atoms: _363  and  _364
REMARK  159  A    between atoms: _367  and  _369
REMARK  160  A    between atoms: _369  and  _370
REMARK  161  A    between atoms: _369  and  _372
REMARK  162  A    between atoms: _372  and  _373
REMARK  163  A    between atoms: _375  and  _377
REMARK  164  A    between atoms: _377  and  _378
REMARK  165  A    between atoms: _380  and  _382
REMARK  166  A    between atoms: _382  and  _383
REMARK  167  A    between atoms: _385  and  _387
REMARK  168  A    between atoms: _387  and  _388
REMARK  169  A    between atoms: _387  and  _390
REMARK  170  A    between atoms: _390  and  _391
REMARK  171  A    between atoms: _396  and  _398
REMARK  172  A    between atoms: _398  and  _399
REMARK  173  A    between atoms: _398  and  _401
REMARK  174  A    between atoms: _401  and  _402
REMARK  175  A    between atoms: _405  and  _407
REMARK  176  A    between atoms: _407  and  _408
REMARK  177  A    between atoms: _407  and  _410
REMARK  178  A    between atoms: _413  and  _415
REMARK  179  A    between atoms: _415  and  _416
REMARK  180  A    between atoms: _415  and  _418
REMARK  181  A    between atoms: _418  and  _419
REMARK  182  A    between atoms: _421  and  _423
REMARK  183  A    between atoms: _423  and  _424
REMARK  184  A    between atoms: _423  and  _426
REMARK  185  A    between atoms: _426  and  _427
REMARK  186  A    between atoms: _437  and  _439
REMARK  187  A    between atoms: _439  and  _440
REMARK  188  A    between atoms: _442  and  _444
REMARK  189  A    between atoms: _444  and  _445
REMARK  190  A    between atoms: _444  and  _447
REMARK  191  A    between atoms: _447  and  _448
REMARK  192  A    between atoms: _448  and  _449
REMARK  193  A    between atoms: _452  and  _454
REMARK  194  A    between atoms: _454  and  _455
REMARK  195  A    between atoms: _457  and  _459
REMARK  196  A    between atoms: _459  and  _460
REMARK  197  A    between atoms: _459  and  _462
REMARK  198  A    between atoms: _462  and  _463
REMARK  199  A    between atoms: _464  and  _466
REMARK  200  A    between atoms: _466  and  _467
REMARK  201  A    between atoms: _470  and  _472
REMARK  202  A    between atoms: _472  and  _473
REMARK  203  A    between atoms: _472  and  _475
REMARK  204  A    between atoms: _475  and  _476
REMARK  205  A    between atoms: _476  and  _477
REMARK  206  A    between atoms: _477  and  _478
REMARK  207  A    between atoms: _487  and  _489
REMARK  208  A    between atoms: _489  and  _490
REMARK  209  A    between atoms: _489  and  _492
REMARK  210  A    between atoms: _492  and  _493
REMARK  211  A    between atoms: _498  and  _499
REMARK  212  A    between atoms: _501  and  _503
REMARK  213  A    between atoms: _503  and  _504
REMARK  214  A    between atoms: _506  and  _508
REMARK  215  A    between atoms: _508  and  _509
REMARK  216  A    between atoms: _508  and  _511
REMARK  217  A    between atoms: _511  and  _512
REMARK  218  A    between atoms: _515  and  _517
REMARK  219  A    between atoms: _517  and  _518
REMARK  220  A    between atoms: _517  and  _520
REMARK  221  A    between atoms: _520  and  _521
REMARK  222  A    between atoms: _526  and  _527
REMARK  223  A    between atoms: _529  and  _531
REMARK  224  A    between atoms: _531  and  _532
REMARK  225  A    between atoms: _531  and  _534
REMARK  226  A    between atoms: _534  and  _535
REMARK                            x       y       z     vdW  Elec       q    Type
REMARK                         _______ _______ _______ _____ _____    ______ ____
ROOT
ATOM      1  O   HOH     1      13.202  65.915  13.307  0.00  0.00    +0.000 OA
ENDROOT
TORSDOF 0
REMARK  Name = ../refined-set-2016/2xc0/2xc0_pocket.pdb
REMARK  226 active torsions:
REMARK  status: ('A' for Active; 'I' for Inactive)
REMARK    1  A    between atoms: _1  and  _5
REMARK    2  A    between atoms: _5  and  _6
REMARK    3  A    between atoms: _5  and  _8
REMARK    4  A    between atoms: _8  and  _9
REMARK    5  A    between atoms: _12  and  _14
REMARK    6  A    between atoms: _14  and  _15
REMARK    7  A    between atoms: _14  and  _17
REMARK    8  A    between atoms: _20  and  _22
REMARK    9  A    between atoms: _22  and  _23
REMARK   10  A    between atoms: _22  and  _25
REMARK   11  A    between atoms: _25  and  _26
REMARK   12  A    between atoms: _26  and  _55
REMARK   13  A    between atoms: _27  and  _29
REMARK   14  A    between atoms: _29  and  _30
REMARK   15  A    between atoms: _32  and  _34
REMARK   16  A    between atoms: _34  and  _35
REMARK   17  A    between atoms: _38  and  _40
REMARK   18  A    between atoms: _40  and  _41
REMARK   19  A    between atoms: _40  and  _43
REMARK   20  A    between atoms: _43  and  _44
REMARK   21  A    between atoms: _49  and  _51
REMARK   22  A    between atoms: _51  and  _52
REMARK   23  A    between atoms: _51  and  _54
REMARK   24  A    between atoms: _54  and  _55
REMARK   25  A    between atoms: _56  and  _58
REMARK   26  A    between atoms: _58  and  _59
REMARK   27  A    between atoms: _58  and  _61
REMARK   28  A    between atoms: _61  and  _62
REMARK   29  A    between atoms: _62  and  _63
REMARK   30  A    between atoms: _68  and  _70
REMARK   31  A    between atoms: _70  and  _71
REMARK   32  A    between atoms: _70  and  _73
REMARK   33  A    between atoms: _73  and  _74
REMARK   34  A    between atoms: _80  and  _82
REMARK   35  A    between atoms: _82  and  _83
REMARK   36  A    between atoms: _82  and  _85
REMARK   37  A    between atoms: _85  and  _86
REMARK   38  A    between atoms: _89  and  _91
REMARK   39  A    between atoms: _91  and  _92
REMARK   40  A    between atoms: _91  and  _94
REMARK   41  A    between atoms: _94  and  _95
REMARK   42  A    between atoms: _95  and  _96
REMARK   43  A    between atoms: _96  and  _97
REMARK   44  A    between atoms: _97  and  _98
REMARK   45  A    between atoms: _102  and  _104
REMARK   46  A    between atoms: _104  and  _105
REMARK   47  A    between atoms: _104  and  _107
REMARK   48  A    between atoms: _107  and  _108
REMARK   49  A    between atoms: _108  and  _109
REMARK   50  A    between atoms: _112  and  _114
REMARK   51  A    between atoms: _114  and  _115
REMARK   52  A    between atoms: _114  and  _117
REMARK   53  A    between atoms: _117  and  _118
REMARK   54  A    between atoms: _121  and  _123
REMARK   55  A    between atoms: _123  and  _124
REMARK   56  A    between atoms: _123  and  _126
REMARK   57  A    between atoms: _126  and  _127
REMARK   58  A    between atoms: _132  and  _133
REMARK   59  A    between atoms: _135  and  _137
REMARK   60  A    between atoms: _137  and  _138
REMARK   61  A    between atoms: _137  and  _140
REMARK   62  A    between atoms: _140  and  _141
REMARK   63  A    between atoms: _144  and  _146
REMARK   64  A    between atoms: _146  and  _147
REMARK   65  A    between atoms: _146  and  _149
REMARK   66  A    between atoms: _149  and  _150
REMARK   67  A    between atoms: _153  and  _155
REMARK   68  A    between atoms: _155  and  _156
REMARK   69  A    between atoms: _155  and  _158
REMARK   70  A    between atoms: _161  and  _163
REMARK   71  A    between atoms: _163  and  _164
REMARK   72  A    between atoms: _163  and  _166
REMARK   73  A    between atoms: _166  and  _167
REMARK   74  A    between atoms: _167  and  _168
REMARK   75  A    between atoms: _168  and  _169
REMARK   76  A    between atoms: _178  and  _180
REMARK   77  A    between atoms: _180  and  _181
REMARK   78  A    between atoms: _180  and  _183
REMARK   79  A    between atoms: _183  and  _184
REMARK   80  A    between atoms: _189  and  _191
REMARK   81  A    between atoms: _191  and  _192
REMARK   82  A    between atoms: _191  and  _194
REMARK   83  A    between atoms: _194  and  _195
REMARK   84  A    between atoms: _195  and  _196
REMARK   85  A    between atoms: _199  and  _201
REMARK   86  A    between atoms: _201  and  _202
REMARK   87  A    between atoms: _201  and  _204
REMARK   88  A    between atoms: _204  and  _205
REMARK   89  A    between atoms: _205  and  _206
REMARK   90  A    between atoms: _206  and  _207
REMARK   91  A    between atoms: _207  and  _208
REMARK   92  A    between atoms: _212  and  _214
REMARK   93  A    between atoms: _214  and  _215
REMARK   94  A    between atoms: _217  and  _219
REMARK   95  A    between atoms: _219  and  _220
REMARK   96  A    between atoms: _219  and  _222
REMARK   97  A    between atoms: _225  and  _227
REMARK   98  A    between atoms: _227  and  _228
REMARK   99  A    between atoms: _227  and  _230
REMARK  100  A    between atoms: _230  and  _231
REMARK  101  A    between atoms: _233  and  _235
REMARK  102  A    between atoms: _235  and  _236
REMARK  103  A    between atoms: _235  and  _238
REMARK  104  A    between atoms: _238  and  _239
REMARK  105  A    between atoms: _241  and  _243
REMARK  106  A    between atoms: _243  and  _244
REMARK  107  A    between atoms: _243  and  _246
REMARK  108  A    between atoms: _246  and  _247
REMARK  109  A    between atoms: _253  and  _255
REMARK  110  A    between atoms: _255  and  _256
REMARK  111  A    between atoms: _255  and  _258
REMARK  112  A    between atoms: _258  and  _259
REMARK  113  A    between atoms: _262  and  _264
REMARK  114  A    between atoms: _264  and  _265
REMARK  115  A    between atoms: _264  and  _267
REMARK  116  A    between atoms: _267  and  _268
REMARK  117  A    between atoms: _271  and  _273
REMARK  118  A    between atoms: _273  and  _274
REMARK  119  A    between atoms: _273  and  _276
REMARK  120  A    between atoms: _276  and  _277
REMARK  121  A    between atoms: _280  and  _282
REMARK  122  A    between atoms: _282  and  _283
REMARK  123  A    between atoms: _282  and  _285
REMARK  124  A    between atoms: _285  and  _286
REMARK  125  A    between atoms: _286  and  _287
REMARK  126  A    between atoms: _289  and  _291
REMARK  127  A    between atoms: _291  and  _292
REMARK  128  A    between atoms: _291  and  _294
REMARK  129  A    between atoms: _294  and  _295
REMARK  130  A    between atoms: _301  and  _303
REMARK  131  A    between atoms: _303  and  _304
REMARK  132  A    between atoms: _303  and  _306
REMARK  133  A    between atoms: _308  and  _310
REMARK  134  A    between atoms: _310  and  _311
REMARK  135  A    between atoms: _314  and  _316
REMARK  136  A    between atoms: _316  and  _317
REMARK  137  A    between atoms: _319  and  _321
REMARK  138  A    between atoms: _321  and  _322
REMARK  139  A    between atoms: _321  and  _324
REMARK  140  A    between atoms: _324  and  _325
REMARK  141  A    between atoms: _328  and  _330
REMARK  142  A    between atoms: _330  and  _331
REMARK  143  A    between atoms: _334  and  _336
REMARK  144  A    between atoms: _336  and  _337
REMARK  145  A    between atoms: _336  and  _339
REMARK  146  A    between atoms: _339  and  _340
REMARK  147  A    between atoms: _340  and  _463
REMARK  148  A    between atoms: _341  and  _343
REMARK  149  A    between atoms: _343  and  _344
REMARK  150  A    between atoms: _343  and  _346
REMARK  151  A    between atoms: _346  and  _347
REMARK  152  A    between atoms: _347  and  _348
REMARK  153  A    between atoms: _353  and  _355
REMARK  154  A    between atoms: _355  and  _356
REMARK  155  A    between atoms: _358  and  _360
REMARK  156  A    between atoms: _360  and  _361
REMARK  157  A    between atoms: _360  and  _363
REMARK  158  A    between atoms: _363  and  _364
REMARK  159  A    between atoms: _367  and  _369
REMARK  160  A    between atoms: _369  and  _370
REMARK  161  A    between atoms: _369  and  _372
REMARK  162  A    between atoms: _372  and  _373
REMARK  163  A    between atoms: _375  and  _377
REMARK  164  A    between atoms: _377  and  _378
REMARK  165  A    between atoms: _380  and  _382
REMARK  166  A    between atoms: _382  and  _383
REMARK  167  A    between atoms: _385  and  _387
REMARK  168  A    between atoms: _387  and  _388
REMARK  169  A    between atoms: _387  and  _390
REMARK  170  A    between atoms: _390  and  _391
REMARK  171  A    between atoms: _396  and  _398
REMARK  172  A    between atoms: _398  and  _399
REMARK  173  A    between atoms: _398  and  _401
REMARK  174  A    between atoms: _401  and  _402
REMARK  175  A    between atoms: _405  and  _407
REMARK  176  A    between atoms: _407  and  _408
REMARK  177  A    between atoms: _407  and  _410
REMARK  178  A    between atoms: _413  and  _415
REMARK  179  A    between atoms: _415  and  _416
REMARK  180  A    between atoms: _415  and  _418
REMARK  181  A    between atoms: _418  and  _419
REMARK  182  A    between atoms: _421  and  _423
REMARK  183  A    between atoms: _423  and  _424
REMARK  184  A    between atoms: _423  and  _426
REMARK  185  A    between atoms: _426  and  _427
REMARK  186  A    between atoms: _437  and  _439
REMARK  187  A    between atoms: _439  and  _440
REMARK  188  A    between atoms: _442  and  _444
REMARK  189  A    between atoms: _444  and  _445
REMARK  190  A    between atoms: _444  and  _447
REMARK  191  A    between atoms: _447  and  _448
REMARK  192  A    between atoms: _448  and  _449
REMARK  193  A    between atoms: _452  and  _454
REMARK  194  A    between atoms: _454  and  _455
REMARK  195  A    between atoms: _457  and  _459
REMARK  196  A    between atoms: _459  and  _460
REMARK  197  A    between atoms: _459  and  _462
REMARK  198  A    between atoms: _462  and  _463
REMARK  199  A    between atoms: _464  and  _466
REMARK  200  A    between atoms: _466  and  _467
REMARK  201  A    between atoms: _470  and  _472
REMARK  202  A    between atoms: _472  and  _473
REMARK  203  A    between atoms: _472  and  _475
REMARK  204  A    between atoms: _475  and  _476
REMARK  205  A    between atoms: _476  and  _477
REMARK  206  A    between atoms: _477  and  _478
REMARK  207  A    between atoms: _487  and  _489
REMARK  208  A    between atoms: _489  and  _490
REMARK  209  A    between atoms: _489  and  _492
REMARK  210  A    between atoms: _492  and  _493
REMARK  211  A    between atoms: _498  and  _499
REMARK  212  A    between atoms: _501  and  _503
REMARK  213  A    between atoms: _503  and  _504
REMARK  214  A    between atoms: _506  and  _508
REMARK  215  A    between atoms: _508  and  _509
REMARK  216  A    between atoms: _508  and  _511
REMARK  217  A    between atoms: _511  and  _512
REMARK  218  A    between atoms: _515  and  _517
REMARK  219  A    between atoms: _517  and  _518
REMARK  220  A    between atoms: _517  and  _520
REMARK  221  A    between atoms: _520  and  _521
REMARK  222  A    between atoms: _526  and  _527
REMARK  223  A    between atoms: _529  and  _531
REMARK  224  A    between atoms: _531  and  _532
REMARK  225  A    between atoms: _531  and  _534
REMARK  226  A    between atoms: _534  and  _535
REMARK                            x       y       z     vdW  Elec       q    Type
REMARK                         _______ _______ _______ _____ _____    ______ ____
ROOT
ATOM      1  O   HOH     1      17.889  63.580  10.990  0.00  0.00    +0.000 OA
ENDROOT
TORSDOF 0
REMARK  Name = ../refined-set-2016/2xc0/2xc0_pocket.pdb
REMARK  226 active torsions:
REMARK  status: ('A' for Active; 'I' for Inactive)
REMARK    1  A    between atoms: _1  and  _5
REMARK    2  A    between atoms: _5  and  _6
REMARK    3  A    between atoms: _5  and  _8
REMARK    4  A    between atoms: _8  and  _9
REMARK    5  A    between atoms: _12  and  _14
REMARK    6  A    between atoms: _14  and  _15
REMARK    7  A    between atoms: _14  and  _17
REMARK    8  A    between atoms: _20  and  _22
REMARK    9  A    between atoms: _22  and  _23
REMARK   10  A    between atoms: _22  and  _25
REMARK   11  A    between atoms: _25  and  _26
REMARK   12  A    between atoms: _26  and  _55
REMARK   13  A    between atoms: _27  and  _29
REMARK   14  A    between atoms: _29  and  _30
REMARK   15  A    between atoms: _32  and  _34
REMARK   16  A    between atoms: _34  and  _35
REMARK   17  A    between atoms: _38  and  _40
REMARK   18  A    between atoms: _40  and  _41
REMARK   19  A    between atoms: _40  and  _43
REMARK   20  A    between atoms: _43  and  _44
REMARK   21  A    between atoms: _49  and  _51
REMARK   22  A    between atoms: _51  and  _52
REMARK   23  A    between atoms: _51  and  _54
REMARK   24  A    between atoms: _54  and  _55
REMARK   25  A    between atoms: _56  and  _58
REMARK   26  A    between atoms: _58  and  _59
REMARK   27  A    between atoms: _58  and  _61
REMARK   28  A    between atoms: _61  and  _62
REMARK   29  A    between atoms: _62  and  _63
REMARK   30  A    between atoms: _68  and  _70
REMARK   31  A    between atoms: _70  and  _71
REMARK   32  A    between atoms: _70  and  _73
REMARK   33  A    between atoms: _73  and  _74
REMARK   34  A    between atoms: _80  and  _82
REMARK   35  A    between atoms: _82  and  _83
REMARK   36  A    between atoms: _82  and  _85
REMARK   37  A    between atoms: _85  and  _86
REMARK   38  A    between atoms: _89  and  _91
REMARK   39  A    between atoms: _91  and  _92
REMARK   40  A    between atoms: _91  and  _94
REMARK   41  A    between atoms: _94  and  _95
REMARK   42  A    between atoms: _95  and  _96
REMARK   43  A    between atoms: _96  and  _97
REMARK   44  A    between atoms: _97  and  _98
REMARK   45  A    between atoms: _102  and  _104
REMARK   46  A    between atoms: _104  and  _105
REMARK   47  A    between atoms: _104  and  _107
REMARK   48  A    between atoms: _107  and  _108
REMARK   49  A    between atoms: _108  and  _109
REMARK   50  A    between atoms: _112  and  _114
REMARK   51  A    between atoms: _114  and  _115
REMARK   52  A    between atoms: _114  and  _117
REMARK   53  A    between atoms: _117  and  _118
REMARK   54  A    between atoms: _121  and  _123
REMARK   55  A    between atoms: _123  and  _124
REMARK   56  A    between atoms: _123  and  _126
REMARK   57  A    between atoms: _126  and  _127
REMARK   58  A    between atoms: _132  and  _133
REMARK   59  A    between atoms: _135  and  _137
REMARK   60  A    between atoms: _137  and  _138
REMARK   61  A    between atoms: _137  and  _140
REMARK   62  A    between atoms: _140  and  _141
REMARK   63  A    between atoms: _144  and  _146
REMARK   64  A    between atoms: _146  and  _147
REMARK   65  A    between atoms: _146  and  _149
REMARK   66  A    between atoms: _149  and  _150
REMARK   67  A    between atoms: _153  and  _155
REMARK   68  A    between atoms: _155  and  _156
REMARK   69  A    between atoms: _155  and  _158
REMARK   70  A    between atoms: _161  and  _163
REMARK   71  A    between atoms: _163  and  _164
REMARK   72  A    between atoms: _163  and  _166
REMARK   73  A    between atoms: _166  and  _167
REMARK   74  A    between atoms: _167  and  _168
REMARK   75  A    between atoms: _168  and  _169
REMARK   76  A    between atoms: _178  and  _180
REMARK   77  A    between atoms: _180  and  _181
REMARK   78  A    between atoms: _180  and  _183
REMARK   79  A    between atoms: _183  and  _184
REMARK   80  A    between atoms: _189  and  _191
REMARK   81  A    between atoms: _191  and  _192
REMARK   82  A    between atoms: _191  and  _194
REMARK   83  A    between atoms: _194  and  _195
REMARK   84  A    between atoms: _195  and  _196
REMARK   85  A    between atoms: _199  and  _201
REMARK   86  A    between atoms: _201  and  _202
REMARK   87  A    between atoms: _201  and  _204
REMARK   88  A    between atoms: _204  and  _205
REMARK   89  A    between atoms: _205  and  _206
REMARK   90  A    between atoms: _206  and  _207
REMARK   91  A    between atoms: _207  and  _208
REMARK   92  A    between atoms: _212  and  _214
REMARK   93  A    between atoms: _214  and  _215
REMARK   94  A    between atoms: _217  and  _219
REMARK   95  A    between atoms: _219  and  _220
REMARK   96  A    between atoms: _219  and  _222
REMARK   97  A    between atoms: _225  and  _227
REMARK   98  A    between atoms: _227  and  _228
REMARK   99  A    between atoms: _227  and  _230
REMARK  100  A    between atoms: _230  and  _231
REMARK  101  A    between atoms: _233  and  _235
REMARK  102  A    between atoms: _235  and  _236
REMARK  103  A    between atoms: _235  and  _238
REMARK  104  A    between atoms: _238  and  _239
REMARK  105  A    between atoms: _241  and  _243
REMARK  106  A    between atoms: _243  and  _244
REMARK  107  A    between atoms: _243  and  _246
REMARK  108  A    between atoms: _246  and  _247
REMARK  109  A    between atoms: _253  and  _255
REMARK  110  A    between atoms: _255  and  _256
REMARK  111  A    between atoms: _255  and  _258
REMARK  112  A    between atoms: _258  and  _259
REMARK  113  A    between atoms: _262  and  _264
REMARK  114  A    between atoms: _264  and  _265
REMARK  115  A    between atoms: _264  and  _267
REMARK  116  A    between atoms: _267  and  _268
REMARK  117  A    between atoms: _271  and  _273
REMARK  118  A    between atoms: _273  and  _274
REMARK  119  A    between atoms: _273  and  _276
REMARK  120  A    between atoms: _276  and  _277
REMARK  121  A    between atoms: _280  and  _282
REMARK  122  A    between atoms: _282  and  _283
REMARK  123  A    between atoms: _282  and  _285
REMARK  124  A    between atoms: _285  and  _286
REMARK  125  A    between atoms: _286  and  _287
REMARK  126  A    between atoms: _289  and  _291
REMARK  127  A    between atoms: _291  and  _292
REMARK  128  A    between atoms: _291  and  _294
REMARK  129  A    between atoms: _294  and  _295
REMARK  130  A    between atoms: _301  and  _303
REMARK  131  A    between atoms: _303  and  _304
REMARK  132  A    between atoms: _303  and  _306
REMARK  133  A    between atoms: _308  and  _310
REMARK  134  A    between atoms: _310  and  _311
REMARK  135  A    between atoms: _314  and  _316
REMARK  136  A    between atoms: _316  and  _317
REMARK  137  A    between atoms: _319  and  _321
REMARK  138  A    between atoms: _321  and  _322
REMARK  139  A    between atoms: _321  and  _324
REMARK  140  A    between atoms: _324  and  _325
REMARK  141  A    between atoms: _328  and  _330
REMARK  142  A    between atoms: _330  and  _331
REMARK  143  A    between atoms: _334  and  _336
REMARK  144  A    between atoms: _336  and  _337
REMARK  145  A    between atoms: _336  and  _339
REMARK  146  A    between atoms: _339  and  _340
REMARK  147  A    between atoms: _340  and  _463
REMARK  148  A    between atoms: _341  and  _343
REMARK  149  A    between atoms: _343  and  _344
REMARK  150  A    between atoms: _343  and  _346
REMARK  151  A    between atoms: _346  and  _347
REMARK  152  A    between atoms: _347  and  _348
REMARK  153  A    between atoms: _353  and  _355
REMARK  154  A    between atoms: _355  and  _356
REMARK  155  A    between atoms: _358  and  _360
REMARK  156  A    between atoms: _360  and  _361
REMARK  157  A    between atoms: _360  and  _363
REMARK  158  A    between atoms: _363  and  _364
REMARK  159  A    between atoms: _367  and  _369
REMARK  160  A    between atoms: _369  and  _370
REMARK  161  A    between atoms: _369  and  _372
REMARK  162  A    between atoms: _372  and  _373
REMARK  163  A    between atoms: _375  and  _377
REMARK  164  A    between atoms: _377  and  _378
REMARK  165  A    between atoms: _380  and  _382
REMARK  166  A    between atoms: _382  and  _383
REMARK  167  A    between atoms: _385  and  _387
REMARK  168  A    between atoms: _387  and  _388
REMARK  169  A    between atoms: _387  and  _390
REMARK  170  A    between atoms: _390  and  _391
REMARK  171  A    between atoms: _396  and  _398
REMARK  172  A    between atoms: _398  and  _399
REMARK  173  A    between atoms: _398  and  _401
REMARK  174  A    between atoms: _401  and  _402
REMARK  175  A    between atoms: _405  and  _407
REMARK  176  A    between atoms: _407  and  _408
REMARK  177  A    between atoms: _407  and  _410
REMARK  178  A    between atoms: _413  and  _415
REMARK  179  A    between atoms: _415  and  _416
REMARK  180  A    between atoms: _415  and  _418
REMARK  181  A    between atoms: _418  and  _419
REMARK  182  A    between atoms: _421  and  _423
REMARK  183  A    between atoms: _423  and  _424
REMARK  184  A    between atoms: _423  and  _426
REMARK  185  A    between atoms: _426  and  _427
REMARK  186  A    between atoms: _437  and  _439
REMARK  187  A    between atoms: _439  and  _440
REMARK  188  A    between atoms: _442  and  _444
REMARK  189  A    between atoms: _444  and  _445
REMARK  190  A    between atoms: _444  and  _447
REMARK  191  A    between atoms: _447  and  _448
REMARK  192  A    between atoms: _448  and  _449
REMARK  193  A    between atoms: _452  and  _454
REMARK  194  A    between atoms: _454  and  _455
REMARK  195  A    between atoms: _457  and  _459
REMARK  196  A    between atoms: _459  and  _460
REMARK  197  A    between atoms: _459  and  _462
REMARK  198  A    between atoms: _462  and  _463
REMARK  199  A    between atoms: _464  and  _466
REMARK  200  A    between atoms: _466  and  _467
REMARK  201  A    between atoms: _470  and  _472
REMARK  202  A    between atoms: _472  and  _473
REMARK  203  A    between atoms: _472  and  _475
REMARK  204  A    between atoms: _475  and  _476
REMARK  205  A    between atoms: _476  and  _477
REMARK  206  A    between atoms: _477  and  _478
REMARK  207  A    between atoms: _487  and  _489
REMARK  208  A    between atoms: _489  and  _490
REMARK  209  A    between atoms: _489  and  _492
REMARK  210  A    between atoms: _492  and  _493
REMARK  211  A    between atoms: _498  and  _499
REMARK  212  A    between atoms: _501  and  _503
REMARK  213  A    between atoms: _503  and  _504
REMARK  214  A    between atoms: _506  and  _508
REMARK  215  A    between atoms: _508  and  _509
REMARK  216  A    between atoms: _508  and  _511
REMARK  217  A    between atoms: _511  and  _512
REMARK  218  A    between atoms: _515  and  _517
REMARK  219  A    between atoms: _517  and  _518
REMARK  220  A    between atoms: _517  and  _520
REMARK  221  A    between atoms: _520  and  _521
REMARK  222  A    between atoms: _526  and  _527
REMARK  223  A    between atoms: _529  and  _531
REMARK  224  A    between atoms: _531  and  _532
REMARK  225  A    between atoms: _531  and  _534
REMARK  226  A    between atoms: _534  and  _535
REMARK                            x       y       z     vdW  Elec       q    Type
REMARK                         _______ _______ _______ _____ _____    ______ ____
ROOT
ATOM      1  O   HOH     1       6.116  66.327   4.966  0.00  0.00    +0.000 OA
ENDROOT
TORSDOF 0
