REMARK  Name = ../refined-set-2016/3g3r/3g3r_pocket.pdb
REMARK  184 active torsions:
REMARK  status: ('A' for Active; 'I' for Inactive)
REMARK    1  A    between atoms: _1  and  _3
REMARK    2  A    between atoms: _3  and  _4
REMARK    3  A    between atoms: _3  and  _6
REMARK    4  A    between atoms: _6  and  _7
REMARK    5  A    between atoms: _10  and  _12
REMARK    6  A    between atoms: _12  and  _13
REMARK    7  A    between atoms: _12  and  _15
REMARK    8  A    between atoms: _15  and  _16
REMARK    9  A    between atoms: _16  and  _17
REMARK   10  A    between atoms: _17  and  _18
REMARK   11  A    between atoms: _18  and  _19
REMARK   12  A    between atoms: _23  and  _25
REMARK   13  A    between atoms: _25  and  _26
REMARK   14  A    between atoms: _25  and  _28
REMARK   15  A    between atoms: _28  and  _29
REMARK   16  A    between atoms: _39  and  _41
REMARK   17  A    between atoms: _41  and  _42
REMARK   18  A    between atoms: _41  and  _44
REMARK   19  A    between atoms: _44  and  _45
REMARK   20  A    between atoms: _48  and  _50
REMARK   21  A    between atoms: _50  and  _51
REMARK   22  A    between atoms: _50  and  _53
REMARK   23  A    between atoms: _53  and  _54
REMARK   24  A    between atoms: _57  and  _59
REMARK   25  A    between atoms: _59  and  _60
REMARK   26  A    between atoms: _59  and  _62
REMARK   27  A    between atoms: _62  and  _63
REMARK   28  A    between atoms: _65  and  _67
REMARK   29  A    between atoms: _67  and  _68
REMARK   30  A    between atoms: _67  and  _70
REMARK   31  A    between atoms: _70  and  _71
REMARK   32  A    between atoms: _76  and  _77
REMARK   33  A    between atoms: _79  and  _81
REMARK   34  A    between atoms: _81  and  _82
REMARK   35  A    between atoms: _81  and  _84
REMARK   36  A    between atoms: _84  and  _85
REMARK   37  A    between atoms: _85  and  _86
REMARK   38  A    between atoms: _86  and  _87
REMARK   39  A    between atoms: _96  and  _98
REMARK   40  A    between atoms: _98  and  _99
REMARK   41  A    between atoms: _98  and  _101
REMARK   42  A    between atoms: _101  and  _102
REMARK   43  A    between atoms: _102  and  _103
REMARK   44  A    between atoms: _103  and  _104
REMARK   45  A    between atoms: _104  and  _105
REMARK   46  A    between atoms: _109  and  _111
REMARK   47  A    between atoms: _111  and  _112
REMARK   48  A    between atoms: _115  and  _117
REMARK   49  A    between atoms: _117  and  _118
REMARK   50  A    between atoms: _117  and  _120
REMARK   51  A    between atoms: _120  and  _121
REMARK   52  A    between atoms: _121  and  _122
REMARK   53  A    between atoms: _122  and  _123
REMARK   54  A    between atoms: _132  and  _134
REMARK   55  A    between atoms: _134  and  _135
REMARK   56  A    between atoms: _134  and  _137
REMARK   57  A    between atoms: _137  and  _138
REMARK   58  A    between atoms: _138  and  _139
REMARK   59  A    between atoms: _139  and  _140
REMARK   60  A    between atoms: _149  and  _151
REMARK   61  A    between atoms: _151  and  _152
REMARK   62  A    between atoms: _151  and  _154
REMARK   63  A    between atoms: _154  and  _155
REMARK   64  A    between atoms: _160  and  _161
REMARK   65  A    between atoms: _163  and  _165
REMARK   66  A    between atoms: _165  and  _166
REMARK   67  A    between atoms: _165  and  _168
REMARK   68  A    between atoms: _168  and  _169
REMARK   69  A    between atoms: _169  and  _170
REMARK   70  A    between atoms: _173  and  _175
REMARK   71  A    between atoms: _175  and  _176
REMARK   72  A    between atoms: _175  and  _178
REMARK   73  A    between atoms: _178  and  _179
REMARK   74  A    between atoms: _179  and  _180
REMARK   75  A    between atoms: _180  and  _181
REMARK   76  A    between atoms: _181  and  _182
REMARK   77  A    between atoms: _186  and  _188
REMARK   78  A    between atoms: _188  and  _189
REMARK   79  A    between atoms: _188  and  _191
REMARK   80  A    between atoms: _191  and  _192
REMARK   81  A    between atoms: _194  and  _196
REMARK   82  A    between atoms: _196  and  _197
REMARK   83  A    between atoms: _196  and  _199
REMARK   84  A    between atoms: _199  and  _200
REMARK   85  A    between atoms: _200  and  _201
REMARK   86  A    between atoms: _201  and  _202
REMARK   87  A    between atoms: _202  and  _203
REMARK   88  A    between atoms: _207  and  _209
REMARK   89  A    between atoms: _209  and  _210
REMARK   90  A    between atoms: _209  and  _212
REMARK   91  A    between atoms: _212  and  _213
REMARK   92  A    between atoms: _213  and  _214
REMARK   93  A    between atoms: _214  and  _215
REMARK   94  A    between atoms: _224  and  _226
REMARK   95  A    between atoms: _226  and  _227
REMARK   96  A    between atoms: _226  and  _229
REMARK   97  A    between atoms: _229  and  _230
REMARK   98  A    between atoms: _232  and  _234
REMARK   99  A    between atoms: _234  and  _235
REMARK  100  A    between atoms: _234  and  _237
REMARK  101  A    between atoms: _237  and  _238
REMARK  102  A    between atoms: _244  and  _246
REMARK  103  A    between atoms: _246  and  _247
REMARK  104  A    between atoms: _246  and  _249
REMARK  105  A    between atoms: _249  and  _250
REMARK  106  A    between atoms: _255  and  _256
REMARK  107  A    between atoms: _258  and  _260
REMARK  108  A    between atoms: _260  and  _261
REMARK  109  A    between atoms: _260  and  _263
REMARK  110  A    between atoms: _263  and  _264
REMARK  111  A    between atoms: _264  and  _265
REMARK  112  A    between atoms: _265  and  _266
REMARK  113  A    between atoms: _275  and  _277
REMARK  114  A    between atoms: _277  and  _278
REMARK  115  A    between atoms: _277  and  _280
REMARK  116  A    between atoms: _280  and  _281
REMARK  117  A    between atoms: _283  and  _285
REMARK  118  A    between atoms: _285  and  _286
REMARK  119  A    between atoms: _285  and  _288
REMARK  120  A    between atoms: _288  and  _289
REMARK  121  A    between atoms: _292  and  _294
REMARK  122  A    between atoms: _294  and  _295
REMARK  123  A    between atoms: _294  and  _297
REMARK  124  A    between atoms: _297  and  _298
REMARK  125  A    between atoms: _301  and  _303
REMARK  126  A    between atoms: _303  and  _304
REMARK  127  A    between atoms: _303  and  _306
REMARK  128  A    between atoms: _306  and  _307
REMARK  129  A    between atoms: _307  and  _308
REMARK  130  A    between atoms: _310  and  _312
REMARK  131  A    between atoms: _312  and  _313
REMARK  132  A    between atoms: _312  and  _315
REMARK  133  A    between atoms: _318  and  _320
REMARK  134  A    between atoms: _320  and  _321
REMARK  135  A    between atoms: _320  and  _323
REMARK  136  A    between atoms: _323  and  _324
REMARK  137  A    between atoms: _324  and  _325
REMARK  138  A    between atoms: _328  and  _330
REMARK  139  A    between atoms: _330  and  _331
REMARK  140  A    between atoms: _330  and  _333
REMARK  141  A    between atoms: _333  and  _334
REMARK  142  A    between atoms: _334  and  _335
REMARK  143  A    between atoms: _335  and  _336
REMARK  144  A    between atoms: _336  and  _337
REMARK  145  A    between atoms: _341  and  _343
REMARK  146  A    between atoms: _343  and  _344
REMARK  147  A    between atoms: _343  and  _346
REMARK  148  A    between atoms: _346  and  _347
REMARK  149  A    between atoms: _347  and  _348
REMARK  150  A    between atoms: _348  and  _349
REMARK  151  A    between atoms: _349  and  _350
REMARK  152  A    between atoms: _354  and  _356
REMARK  153  A    between atoms: _356  and  _357
REMARK  154  A    between atoms: _356  and  _359
REMARK  155  A    between atoms: _359  and  _360
REMARK  156  A    between atoms: _366  and  _368
REMARK  157  A    between atoms: _368  and  _369
REMARK  158  A    between atoms: _368  and  _371
REMARK  159  A    between atoms: _371  and  _372
REMARK  160  A    between atoms: _374  and  _376
REMARK  161  A    between atoms: _376  and  _377
REMARK  162  A    between atoms: _376  and  _379
REMARK  163  A    between atoms: _379  and  _380
REMARK  164  A    between atoms: _380  and  _381
REMARK  165  A    between atoms: _381  and  _382
REMARK  166  A    between atoms: _382  and  _383
REMARK  167  A    between atoms: _387  and  _389
REMARK  168  A    between atoms: _389  and  _390
REMARK  169  A    between atoms: _389  and  _392
REMARK  170  A    between atoms: _392  and  _393
REMARK  171  A    between atoms: _399  and  _401
REMARK  172  A    between atoms: _401  and  _402
REMARK  173  A    between atoms: _401  and  _404
REMARK  174  A    between atoms: _404  and  _405
REMARK  175  A    between atoms: _408  and  _410
REMARK  176  A    between atoms: _410  and  _411
REMARK  177  A    between atoms: _410  and  _413
REMARK  178  A    between atoms: _413  and  _414
REMARK  179  A    between atoms: _419  and  _421
REMARK  180  A    between atoms: _421  and  _422
REMARK  181  A    between atoms: _424  and  _426
REMARK  182  A    between atoms: _426  and  _427
REMARK  183  A    between atoms: _426  and  _429
REMARK  184  A    between atoms: _429  and  _430
REMARK                            x       y       z     vdW  Elec       q    Type
REMARK                         _______ _______ _______ _____ _____    ______ ____
ROOT
ATOM      1  CA  THR A   1      22.423  13.742  10.026  0.00  0.00    +0.160 C 
ENDROOT
BRANCH   1   2
ATOM      2  N   THR A   1      23.804  13.267  10.135  0.00  0.00    -0.237 NA
ATOM      3  H   THR A   1      24.427  13.705  10.843  0.00  0.00    +0.142 HD
ENDBRANCH   1   2
BRANCH   1   4
ATOM      4  CB  THR A   1      21.571  13.361  11.253  0.00  0.00    +0.134 C 
ATOM      5  CG2 THR A   1      20.301  14.200  11.288  0.00  0.00    +0.034 C 
BRANCH   4   6
ATOM      6  OG1 THR A   1      21.208  11.979  11.183  0.00  0.00    -0.383 OA
ATOM      7  HG1 THR A   1      20.661  11.742  11.974  0.00  0.00    +0.210 HD
ENDBRANCH   4   6
ENDBRANCH   1   4
BRANCH   1   8
ATOM      8  C   THR A   1      22.370  15.258   9.889  0.00  0.00    +0.227 C 
ATOM      9  O   THR A   1      22.974  15.983  10.675  0.00  0.00    -0.287 OA
ENDBRANCH   1   8
TORSDOF 4
REMARK  Name = ../refined-set-2016/3g3r/3g3r_pocket.pdb
REMARK  184 active torsions:
REMARK  status: ('A' for Active; 'I' for Inactive)
REMARK    1  A    between atoms: _1  and  _3
REMARK    2  A    between atoms: _3  and  _4
REMARK    3  A    between atoms: _3  and  _6
REMARK    4  A    between atoms: _6  and  _7
REMARK    5  A    between atoms: _10  and  _12
REMARK    6  A    between atoms: _12  and  _13
REMARK    7  A    between atoms: _12  and  _15
REMARK    8  A    between atoms: _15  and  _16
REMARK    9  A    between atoms: _16  and  _17
REMARK   10  A    between atoms: _17  and  _18
REMARK   11  A    between atoms: _18  and  _19
REMARK   12  A    between atoms: _23  and  _25
REMARK   13  A    between atoms: _25  and  _26
REMARK   14  A    between atoms: _25  and  _28
REMARK   15  A    between atoms: _28  and  _29
REMARK   16  A    between atoms: _39  and  _41
REMARK   17  A    between atoms: _41  and  _42
REMARK   18  A    between atoms: _41  and  _44
REMARK   19  A    between atoms: _44  and  _45
REMARK   20  A    between atoms: _48  and  _50
REMARK   21  A    between atoms: _50  and  _51
REMARK   22  A    between atoms: _50  and  _53
REMARK   23  A    between atoms: _53  and  _54
REMARK   24  A    between atoms: _57  and  _59
REMARK   25  A    between atoms: _59  and  _60
REMARK   26  A    between atoms: _59  and  _62
REMARK   27  A    between atoms: _62  and  _63
REMARK   28  A    between atoms: _65  and  _67
REMARK   29  A    between atoms: _67  and  _68
REMARK   30  A    between atoms: _67  and  _70
REMARK   31  A    between atoms: _70  and  _71
REMARK   32  A    between atoms: _76  and  _77
REMARK   33  A    between atoms: _79  and  _81
REMARK   34  A    between atoms: _81  and  _82
REMARK   35  A    between atoms: _81  and  _84
REMARK   36  A    between atoms: _84  and  _85
REMARK   37  A    between atoms: _85  and  _86
REMARK   38  A    between atoms: _86  and  _87
REMARK   39  A    between atoms: _96  and  _98
REMARK   40  A    between atoms: _98  and  _99
REMARK   41  A    between atoms: _98  and  _101
REMARK   42  A    between atoms: _101  and  _102
REMARK   43  A    between atoms: _102  and  _103
REMARK   44  A    between atoms: _103  and  _104
REMARK   45  A    between atoms: _104  and  _105
REMARK   46  A    between atoms: _109  and  _111
REMARK   47  A    between atoms: _111  and  _112
REMARK   48  A    between atoms: _115  and  _117
REMARK   49  A    between atoms: _117  and  _118
REMARK   50  A    between atoms: _117  and  _120
REMARK   51  A    between atoms: _120  and  _121
REMARK   52  A    between atoms: _121  and  _122
REMARK   53  A    between atoms: _122  and  _123
REMARK   54  A    between atoms: _132  and  _134
REMARK   55  A    between atoms: _134  and  _135
REMARK   56  A    between atoms: _134  and  _137
REMARK   57  A    between atoms: _137  and  _138
REMARK   58  A    between atoms: _138  and  _139
REMARK   59  A    between atoms: _139  and  _140
REMARK   60  A    between atoms: _149  and  _151
REMARK   61  A    between atoms: _151  and  _152
REMARK   62  A    between atoms: _151  and  _154
REMARK   63  A    between atoms: _154  and  _155
REMARK   64  A    between atoms: _160  and  _161
REMARK   65  A    between atoms: _163  and  _165
REMARK   66  A    between atoms: _165  and  _166
REMARK   67  A    between atoms: _165  and  _168
REMARK   68  A    between atoms: _168  and  _169
REMARK   69  A    between atoms: _169  and  _170
REMARK   70  A    between atoms: _173  and  _175
REMARK   71  A    between atoms: _175  and  _176
REMARK   72  A    between atoms: _175  and  _178
REMARK   73  A    between atoms: _178  and  _179
REMARK   74  A    between atoms: _179  and  _180
REMARK   75  A    between atoms: _180  and  _181
REMARK   76  A    between atoms: _181  and  _182
REMARK   77  A    between atoms: _186  and  _188
REMARK   78  A    between atoms: _188  and  _189
REMARK   79  A    between atoms: _188  and  _191
REMARK   80  A    between atoms: _191  and  _192
REMARK   81  A    between atoms: _194  and  _196
REMARK   82  A    between atoms: _196  and  _197
REMARK   83  A    between atoms: _196  and  _199
REMARK   84  A    between atoms: _199  and  _200
REMARK   85  A    between atoms: _200  and  _201
REMARK   86  A    between atoms: _201  and  _202
REMARK   87  A    between atoms: _202  and  _203
REMARK   88  A    between atoms: _207  and  _209
REMARK   89  A    between atoms: _209  and  _210
REMARK   90  A    between atoms: _209  and  _212
REMARK   91  A    between atoms: _212  and  _213
REMARK   92  A    between atoms: _213  and  _214
REMARK   93  A    between atoms: _214  and  _215
REMARK   94  A    between atoms: _224  and  _226
REMARK   95  A    between atoms: _226  and  _227
REMARK   96  A    between atoms: _226  and  _229
REMARK   97  A    between atoms: _229  and  _230
REMARK   98  A    between atoms: _232  and  _234
REMARK   99  A    between atoms: _234  and  _235
REMARK  100  A    between atoms: _234  and  _237
REMARK  101  A    between atoms: _237  and  _238
REMARK  102  A    between atoms: _244  and  _246
REMARK  103  A    between atoms: _246  and  _247
REMARK  104  A    between atoms: _246  and  _249
REMARK  105  A    between atoms: _249  and  _250
REMARK  106  A    between atoms: _255  and  _256
REMARK  107  A    between atoms: _258  and  _260
REMARK  108  A    between atoms: _260  and  _261
REMARK  109  A    between atoms: _260  and  _263
REMARK  110  A    between atoms: _263  and  _264
REMARK  111  A    between atoms: _264  and  _265
REMARK  112  A    between atoms: _265  and  _266
REMARK  113  A    between atoms: _275  and  _277
REMARK  114  A    between atoms: _277  and  _278
REMARK  115  A    between atoms: _277  and  _280
REMARK  116  A    between atoms: _280  and  _281
REMARK  117  A    between atoms: _283  and  _285
REMARK  118  A    between atoms: _285  and  _286
REMARK  119  A    between atoms: _285  and  _288
REMARK  120  A    between atoms: _288  and  _289
REMARK  121  A    between atoms: _292  and  _294
REMARK  122  A    between atoms: _294  and  _295
REMARK  123  A    between atoms: _294  and  _297
REMARK  124  A    between atoms: _297  and  _298
REMARK  125  A    between atoms: _301  and  _303
REMARK  126  A    between atoms: _303  and  _304
REMARK  127  A    between atoms: _303  and  _306
REMARK  128  A    between atoms: _306  and  _307
REMARK  129  A    between atoms: _307  and  _308
REMARK  130  A    between atoms: _310  and  _312
REMARK  131  A    between atoms: _312  and  _313
REMARK  132  A    between atoms: _312  and  _315
REMARK  133  A    between atoms: _318  and  _320
REMARK  134  A    between atoms: _320  and  _321
REMARK  135  A    between atoms: _320  and  _323
REMARK  136  A    between atoms: _323  and  _324
REMARK  137  A    between atoms: _324  and  _325
REMARK  138  A    between atoms: _328  and  _330
REMARK  139  A    between atoms: _330  and  _331
REMARK  140  A    between atoms: _330  and  _333
REMARK  141  A    between atoms: _333  and  _334
REMARK  142  A    between atoms: _334  and  _335
REMARK  143  A    between atoms: _335  and  _336
REMARK  144  A    between atoms: _336  and  _337
REMARK  145  A    between atoms: _341  and  _343
REMARK  146  A    between atoms: _343  and  _344
REMARK  147  A    between atoms: _343  and  _346
REMARK  148  A    between atoms: _346  and  _347
REMARK  149  A    between atoms: _347  and  _348
REMARK  150  A    between atoms: _348  and  _349
REMARK  151  A    between atoms: _349  and  _350
REMARK  152  A    between atoms: _354  and  _356
REMARK  153  A    between atoms: _356  and  _357
REMARK  154  A    between atoms: _356  and  _359
REMARK  155  A    between atoms: _359  and  _360
REMARK  156  A    between atoms: _366  and  _368
REMARK  157  A    between atoms: _368  and  _369
REMARK  158  A    between atoms: _368  and  _371
REMARK  159  A    between atoms: _371  and  _372
REMARK  160  A    between atoms: _374  and  _376
REMARK  161  A    between atoms: _376  and  _377
REMARK  162  A    between atoms: _376  and  _379
REMARK  163  A    between atoms: _379  and  _380
REMARK  164  A    between atoms: _380  and  _381
REMARK  165  A    between atoms: _381  and  _382
REMARK  166  A    between atoms: _382  and  _383
REMARK  167  A    between atoms: _387  and  _389
REMARK  168  A    between atoms: _389  and  _390
REMARK  169  A    between atoms: _389  and  _392
REMARK  170  A    between atoms: _392  and  _393
REMARK  171  A    between atoms: _399  and  _401
REMARK  172  A    between atoms: _401  and  _402
REMARK  173  A    between atoms: _401  and  _404
REMARK  174  A    between atoms: _404  and  _405
REMARK  175  A    between atoms: _408  and  _410
REMARK  176  A    between atoms: _410  and  _411
REMARK  177  A    between atoms: _410  and  _413
REMARK  178  A    between atoms: _413  and  _414
REMARK  179  A    between atoms: _419  and  _421
REMARK  180  A    between atoms: _421  and  _422
REMARK  181  A    between atoms: _424  and  _426
REMARK  182  A    between atoms: _426  and  _427
REMARK  183  A    between atoms: _426  and  _429
REMARK  184  A    between atoms: _429  and  _430
REMARK                            x       y       z     vdW  Elec       q    Type
REMARK                         _______ _______ _______ _____ _____    ______ ____
ROOT
ATOM      1  CG  LYS A   1      17.934  18.314  10.931  0.00  0.00    -0.000 C 
ENDROOT
BRANCH   1   2
ATOM      2  CB  LYS A   1      17.668  19.447   9.959  0.00  0.00    +0.025 C 
BRANCH   2   3
ATOM      3  CA  LYS A   1      18.275  19.211   8.570  0.00  0.00    +0.133 C 
BRANCH   3   4
ATOM      4  N   LYS A   1      19.654  18.757   8.695  0.00  0.00    -0.239 NA
ATOM      5  H   LYS A   1      20.370  19.430   9.034  0.00  0.00    +0.142 HD
ENDBRANCH   3   4
BRANCH   3   6
ATOM      6  C   LYS A   1      18.185  20.484   7.729  0.00  0.00    +0.224 C 
ATOM      7  O   LYS A   1      19.069  21.342   7.782  0.00  0.00    -0.287 OA
ENDBRANCH   3   6
ENDBRANCH   2   3
ENDBRANCH   1   2
BRANCH   1   8
ATOM      8  CD  LYS A   1      17.256  18.518  12.289  0.00  0.00    -0.024 C 
BRANCH   8   9
ATOM      9  CE  LYS A   1      17.557  17.335  13.213  0.00  0.00    -0.086 C 
BRANCH   9  10
ATOM     10  NZ  LYS A   1      17.127  17.531  14.622  0.00  0.00    +0.380 N 
ATOM     11  HZ1 LYS A   1      17.368  16.685  15.177  0.00  0.00    -0.089 HD
ATOM     12  HZ2 LYS A   1      17.614  18.359  15.020  0.00  0.00    -0.089 HD
ATOM     13  HZ3 LYS A   1      16.099  17.685  14.651  0.00  0.00    -0.089 HD
ENDBRANCH   9  10
ENDBRANCH   8   9
ENDBRANCH   1   8
TORSDOF 7
REMARK  Name = ../refined-set-2016/3g3r/3g3r_pocket.pdb
REMARK  184 active torsions:
REMARK  status: ('A' for Active; 'I' for Inactive)
REMARK    1  A    between atoms: _1  and  _3
REMARK    2  A    between atoms: _3  and  _4
REMARK    3  A    between atoms: _3  and  _6
REMARK    4  A    between atoms: _6  and  _7
REMARK    5  A    between atoms: _10  and  _12
REMARK    6  A    between atoms: _12  and  _13
REMARK    7  A    between atoms: _12  and  _15
REMARK    8  A    between atoms: _15  and  _16
REMARK    9  A    between atoms: _16  and  _17
REMARK   10  A    between atoms: _17  and  _18
REMARK   11  A    between atoms: _18  and  _19
REMARK   12  A    between atoms: _23  and  _25
REMARK   13  A    between atoms: _25  and  _26
REMARK   14  A    between atoms: _25  and  _28
REMARK   15  A    between atoms: _28  and  _29
REMARK   16  A    between atoms: _39  and  _41
REMARK   17  A    between atoms: _41  and  _42
REMARK   18  A    between atoms: _41  and  _44
REMARK   19  A    between atoms: _44  and  _45
REMARK   20  A    between atoms: _48  and  _50
REMARK   21  A    between atoms: _50  and  _51
REMARK   22  A    between atoms: _50  and  _53
REMARK   23  A    between atoms: _53  and  _54
REMARK   24  A    between atoms: _57  and  _59
REMARK   25  A    between atoms: _59  and  _60
REMARK   26  A    between atoms: _59  and  _62
REMARK   27  A    between atoms: _62  and  _63
REMARK   28  A    between atoms: _65  and  _67
REMARK   29  A    between atoms: _67  and  _68
REMARK   30  A    between atoms: _67  and  _70
REMARK   31  A    between atoms: _70  and  _71
REMARK   32  A    between atoms: _76  and  _77
REMARK   33  A    between atoms: _79  and  _81
REMARK   34  A    between atoms: _81  and  _82
REMARK   35  A    between atoms: _81  and  _84
REMARK   36  A    between atoms: _84  and  _85
REMARK   37  A    between atoms: _85  and  _86
REMARK   38  A    between atoms: _86  and  _87
REMARK   39  A    between atoms: _96  and  _98
REMARK   40  A    between atoms: _98  and  _99
REMARK   41  A    between atoms: _98  and  _101
REMARK   42  A    between atoms: _101  and  _102
REMARK   43  A    between atoms: _102  and  _103
REMARK   44  A    between atoms: _103  and  _104
REMARK   45  A    between atoms: _104  and  _105
REMARK   46  A    between atoms: _109  and  _111
REMARK   47  A    between atoms: _111  and  _112
REMARK   48  A    between atoms: _115  and  _117
REMARK   49  A    between atoms: _117  and  _118
REMARK   50  A    between atoms: _117  and  _120
REMARK   51  A    between atoms: _120  and  _121
REMARK   52  A    between atoms: _121  and  _122
REMARK   53  A    between atoms: _122  and  _123
REMARK   54  A    between atoms: _132  and  _134
REMARK   55  A    between atoms: _134  and  _135
REMARK   56  A    between atoms: _134  and  _137
REMARK   57  A    between atoms: _137  and  _138
REMARK   58  A    between atoms: _138  and  _139
REMARK   59  A    between atoms: _139  and  _140
REMARK   60  A    between atoms: _149  and  _151
REMARK   61  A    between atoms: _151  and  _152
REMARK   62  A    between atoms: _151  and  _154
REMARK   63  A    between atoms: _154  and  _155
REMARK   64  A    between atoms: _160  and  _161
REMARK   65  A    between atoms: _163  and  _165
REMARK   66  A    between atoms: _165  and  _166
REMARK   67  A    between atoms: _165  and  _168
REMARK   68  A    between atoms: _168  and  _169
REMARK   69  A    between atoms: _169  and  _170
REMARK   70  A    between atoms: _173  and  _175
REMARK   71  A    between atoms: _175  and  _176
REMARK   72  A    between atoms: _175  and  _178
REMARK   73  A    between atoms: _178  and  _179
REMARK   74  A    between atoms: _179  and  _180
REMARK   75  A    between atoms: _180  and  _181
REMARK   76  A    between atoms: _181  and  _182
REMARK   77  A    between atoms: _186  and  _188
REMARK   78  A    between atoms: _188  and  _189
REMARK   79  A    between atoms: _188  and  _191
REMARK   80  A    between atoms: _191  and  _192
REMARK   81  A    between atoms: _194  and  _196
REMARK   82  A    between atoms: _196  and  _197
REMARK   83  A    between atoms: _196  and  _199
REMARK   84  A    between atoms: _199  and  _200
REMARK   85  A    between atoms: _200  and  _201
REMARK   86  A    between atoms: _201  and  _202
REMARK   87  A    between atoms: _202  and  _203
REMARK   88  A    between atoms: _207  and  _209
REMARK   89  A    between atoms: _209  and  _210
REMARK   90  A    between atoms: _209  and  _212
REMARK   91  A    between atoms: _212  and  _213
REMARK   92  A    between atoms: _213  and  _214
REMARK   93  A    between atoms: _214  and  _215
REMARK   94  A    between atoms: _224  and  _226
REMARK   95  A    between atoms: _226  and  _227
REMARK   96  A    between atoms: _226  and  _229
REMARK   97  A    between atoms: _229  and  _230
REMARK   98  A    between atoms: _232  and  _234
REMARK   99  A    between atoms: _234  and  _235
REMARK  100  A    between atoms: _234  and  _237
REMARK  101  A    between atoms: _237  and  _238
REMARK  102  A    between atoms: _244  and  _246
REMARK  103  A    between atoms: _246  and  _247
REMARK  104  A    between atoms: _246  and  _249
REMARK  105  A    between atoms: _249  and  _250
REMARK  106  A    between atoms: _255  and  _256
REMARK  107  A    between atoms: _258  and  _260
REMARK  108  A    between atoms: _260  and  _261
REMARK  109  A    between atoms: _260  and  _263
REMARK  110  A    between atoms: _263  and  _264
REMARK  111  A    between atoms: _264  and  _265
REMARK  112  A    between atoms: _265  and  _266
REMARK  113  A    between atoms: _275  and  _277
REMARK  114  A    between atoms: _277  and  _278
REMARK  115  A    between atoms: _277  and  _280
REMARK  116  A    between atoms: _280  and  _281
REMARK  117  A    between atoms: _283  and  _285
REMARK  118  A    between atoms: _285  and  _286
REMARK  119  A    between atoms: _285  and  _288
REMARK  120  A    between atoms: _288  and  _289
REMARK  121  A    between atoms: _292  and  _294
REMARK  122  A    between atoms: _294  and  _295
REMARK  123  A    between atoms: _294  and  _297
REMARK  124  A    between atoms: _297  and  _298
REMARK  125  A    between atoms: _301  and  _303
REMARK  126  A    between atoms: _303  and  _304
REMARK  127  A    between atoms: _303  and  _306
REMARK  128  A    between atoms: _306  and  _307
REMARK  129  A    between atoms: _307  and  _308
REMARK  130  A    between atoms: _310  and  _312
REMARK  131  A    between atoms: _312  and  _313
REMARK  132  A    between atoms: _312  and  _315
REMARK  133  A    between atoms: _318  and  _320
REMARK  134  A    between atoms: _320  and  _321
REMARK  135  A    between atoms: _320  and  _323
REMARK  136  A    between atoms: _323  and  _324
REMARK  137  A    between atoms: _324  and  _325
REMARK  138  A    between atoms: _328  and  _330
REMARK  139  A    between atoms: _330  and  _331
REMARK  140  A    between atoms: _330  and  _333
REMARK  141  A    between atoms: _333  and  _334
REMARK  142  A    between atoms: _334  and  _335
REMARK  143  A    between atoms: _335  and  _336
REMARK  144  A    between atoms: _336  and  _337
REMARK  145  A    between atoms: _341  and  _343
REMARK  146  A    between atoms: _343  and  _344
REMARK  147  A    between atoms: _343  and  _346
REMARK  148  A    between atoms: _346  and  _347
REMARK  149  A    between atoms: _347  and  _348
REMARK  150  A    between atoms: _348  and  _349
REMARK  151  A    between atoms: _349  and  _350
REMARK  152  A    between atoms: _354  and  _356
REMARK  153  A    between atoms: _356  and  _357
REMARK  154  A    between atoms: _356  and  _359
REMARK  155  A    between atoms: _359  and  _360
REMARK  156  A    between atoms: _366  and  _368
REMARK  157  A    between atoms: _368  and  _369
REMARK  158  A    between atoms: _368  and  _371
REMARK  159  A    between atoms: _371  and  _372
REMARK  160  A    between atoms: _374  and  _376
REMARK  161  A    between atoms: _376  and  _377
REMARK  162  A    between atoms: _376  and  _379
REMARK  163  A    between atoms: _379  and  _380
REMARK  164  A    between atoms: _380  and  _381
REMARK  165  A    between atoms: _381  and  _382
REMARK  166  A    between atoms: _382  and  _383
REMARK  167  A    between atoms: _387  and  _389
REMARK  168  A    between atoms: _389  and  _390
REMARK  169  A    between atoms: _389  and  _392
REMARK  170  A    between atoms: _392  and  _393
REMARK  171  A    between atoms: _399  and  _401
REMARK  172  A    between atoms: _401  and  _402
REMARK  173  A    between atoms: _401  and  _404
REMARK  174  A    between atoms: _404  and  _405
REMARK  175  A    between atoms: _408  and  _410
REMARK  176  A    between atoms: _410  and  _411
REMARK  177  A    between atoms: _410  and  _413
REMARK  178  A    between atoms: _413  and  _414
REMARK  179  A    between atoms: _419  and  _421
REMARK  180  A    between atoms: _421  and  _422
REMARK  181  A    between atoms: _424  and  _426
REMARK  182  A    between atoms: _426  and  _427
REMARK  183  A    between atoms: _426  and  _429
REMARK  184  A    between atoms: _429  and  _430
REMARK                            x       y       z     vdW  Elec       q    Type
REMARK                         _______ _______ _______ _____ _____    ______ ____
ROOT
ATOM      1  CG  TRP A   1      13.831  25.507   7.523  0.00  0.00    -0.002 A 
ATOM      2  CD1 TRP A   1      13.792  24.468   8.406  0.00  0.00    +0.068 A 
ATOM      3  NE1 TRP A   1      13.809  24.947   9.694  0.00  0.00    -0.352 N 
ATOM      4  HE1 TRP A   1      13.800  24.365  10.556  0.00  0.00    +0.166 HD
ATOM      5  CE2 TRP A   1      13.840  26.318   9.658  0.00  0.00    +0.056 A 
ATOM      6  CZ2 TRP A   1      13.868  27.246  10.698  0.00  0.00    +0.017 A 
ATOM      7  CH2 TRP A   1      13.903  28.574  10.361  0.00  0.00    +0.001 A 
ATOM      8  CZ3 TRP A   1      13.916  28.987   9.023  0.00  0.00    +0.000 A 
ATOM      9  CE3 TRP A   1      13.886  28.067   7.991  0.00  0.00    +0.001 A 
ATOM     10  CD2 TRP A   1      13.849  26.703   8.306  0.00  0.00    +0.013 A 
ENDROOT
BRANCH   1  11
ATOM     11  CB  TRP A   1      13.814  25.430   6.046  0.00  0.00    +0.053 C 
BRANCH  11  12
ATOM     12  CA  TRP A   1      13.985  24.031   5.461  0.00  0.00    +0.137 C 
BRANCH  12  13
ATOM     13  N   TRP A   1      15.309  23.494   5.736  0.00  0.00    -0.239 NA
ATOM     14  H   TRP A   1      16.131  24.131   5.712  0.00  0.00    +0.142 HD
ENDBRANCH  12  13
BRANCH  12  15
ATOM     15  C   TRP A   1      13.744  24.111   3.958  0.00  0.00    +0.224 C 
ATOM     16  O   TRP A   1      14.624  24.504   3.194  0.00  0.00    -0.287 OA
ENDBRANCH  12  15
ENDBRANCH  11  12
ENDBRANCH   1  11
TORSDOF 4
REMARK  Name = ../refined-set-2016/3g3r/3g3r_pocket.pdb
REMARK  184 active torsions:
REMARK  status: ('A' for Active; 'I' for Inactive)
REMARK    1  A    between atoms: _1  and  _3
REMARK    2  A    between atoms: _3  and  _4
REMARK    3  A    between atoms: _3  and  _6
REMARK    4  A    between atoms: _6  and  _7
REMARK    5  A    between atoms: _10  and  _12
REMARK    6  A    between atoms: _12  and  _13
REMARK    7  A    between atoms: _12  and  _15
REMARK    8  A    between atoms: _15  and  _16
REMARK    9  A    between atoms: _16  and  _17
REMARK   10  A    between atoms: _17  and  _18
REMARK   11  A    between atoms: _18  and  _19
REMARK   12  A    between atoms: _23  and  _25
REMARK   13  A    between atoms: _25  and  _26
REMARK   14  A    between atoms: _25  and  _28
REMARK   15  A    between atoms: _28  and  _29
REMARK   16  A    between atoms: _39  and  _41
REMARK   17  A    between atoms: _41  and  _42
REMARK   18  A    between atoms: _41  and  _44
REMARK   19  A    between atoms: _44  and  _45
REMARK   20  A    between atoms: _48  and  _50
REMARK   21  A    between atoms: _50  and  _51
REMARK   22  A    between atoms: _50  and  _53
REMARK   23  A    between atoms: _53  and  _54
REMARK   24  A    between atoms: _57  and  _59
REMARK   25  A    between atoms: _59  and  _60
REMARK   26  A    between atoms: _59  and  _62
REMARK   27  A    between atoms: _62  and  _63
REMARK   28  A    between atoms: _65  and  _67
REMARK   29  A    between atoms: _67  and  _68
REMARK   30  A    between atoms: _67  and  _70
REMARK   31  A    between atoms: _70  and  _71
REMARK   32  A    between atoms: _76  and  _77
REMARK   33  A    between atoms: _79  and  _81
REMARK   34  A    between atoms: _81  and  _82
REMARK   35  A    between atoms: _81  and  _84
REMARK   36  A    between atoms: _84  and  _85
REMARK   37  A    between atoms: _85  and  _86
REMARK   38  A    between atoms: _86  and  _87
REMARK   39  A    between atoms: _96  and  _98
REMARK   40  A    between atoms: _98  and  _99
REMARK   41  A    between atoms: _98  and  _101
REMARK   42  A    between atoms: _101  and  _102
REMARK   43  A    between atoms: _102  and  _103
REMARK   44  A    between atoms: _103  and  _104
REMARK   45  A    between atoms: _104  and  _105
REMARK   46  A    between atoms: _109  and  _111
REMARK   47  A    between atoms: _111  and  _112
REMARK   48  A    between atoms: _115  and  _117
REMARK   49  A    between atoms: _117  and  _118
REMARK   50  A    between atoms: _117  and  _120
REMARK   51  A    between atoms: _120  and  _121
REMARK   52  A    between atoms: _121  and  _122
REMARK   53  A    between atoms: _122  and  _123
REMARK   54  A    between atoms: _132  and  _134
REMARK   55  A    between atoms: _134  and  _135
REMARK   56  A    between atoms: _134  and  _137
REMARK   57  A    between atoms: _137  and  _138
REMARK   58  A    between atoms: _138  and  _139
REMARK   59  A    between atoms: _139  and  _140
REMARK   60  A    between atoms: _149  and  _151
REMARK   61  A    between atoms: _151  and  _152
REMARK   62  A    between atoms: _151  and  _154
REMARK   63  A    between atoms: _154  and  _155
REMARK   64  A    between atoms: _160  and  _161
REMARK   65  A    between atoms: _163  and  _165
REMARK   66  A    between atoms: _165  and  _166
REMARK   67  A    between atoms: _165  and  _168
REMARK   68  A    between atoms: _168  and  _169
REMARK   69  A    between atoms: _169  and  _170
REMARK   70  A    between atoms: _173  and  _175
REMARK   71  A    between atoms: _175  and  _176
REMARK   72  A    between atoms: _175  and  _178
REMARK   73  A    between atoms: _178  and  _179
REMARK   74  A    between atoms: _179  and  _180
REMARK   75  A    between atoms: _180  and  _181
REMARK   76  A    between atoms: _181  and  _182
REMARK   77  A    between atoms: _186  and  _188
REMARK   78  A    between atoms: _188  and  _189
REMARK   79  A    between atoms: _188  and  _191
REMARK   80  A    between atoms: _191  and  _192
REMARK   81  A    between atoms: _194  and  _196
REMARK   82  A    between atoms: _196  and  _197
REMARK   83  A    between atoms: _196  and  _199
REMARK   84  A    between atoms: _199  and  _200
REMARK   85  A    between atoms: _200  and  _201
REMARK   86  A    between atoms: _201  and  _202
REMARK   87  A    between atoms: _202  and  _203
REMARK   88  A    between atoms: _207  and  _209
REMARK   89  A    between atoms: _209  and  _210
REMARK   90  A    between atoms: _209  and  _212
REMARK   91  A    between atoms: _212  and  _213
REMARK   92  A    between atoms: _213  and  _214
REMARK   93  A    between atoms: _214  and  _215
REMARK   94  A    between atoms: _224  and  _226
REMARK   95  A    between atoms: _226  and  _227
REMARK   96  A    between atoms: _226  and  _229
REMARK   97  A    between atoms: _229  and  _230
REMARK   98  A    between atoms: _232  and  _234
REMARK   99  A    between atoms: _234  and  _235
REMARK  100  A    between atoms: _234  and  _237
REMARK  101  A    between atoms: _237  and  _238
REMARK  102  A    between atoms: _244  and  _246
REMARK  103  A    between atoms: _246  and  _247
REMARK  104  A    between atoms: _246  and  _249
REMARK  105  A    between atoms: _249  and  _250
REMARK  106  A    between atoms: _255  and  _256
REMARK  107  A    between atoms: _258  and  _260
REMARK  108  A    between atoms: _260  and  _261
REMARK  109  A    between atoms: _260  and  _263
REMARK  110  A    between atoms: _263  and  _264
REMARK  111  A    between atoms: _264  and  _265
REMARK  112  A    between atoms: _265  and  _266
REMARK  113  A    between atoms: _275  and  _277
REMARK  114  A    between atoms: _277  and  _278
REMARK  115  A    between atoms: _277  and  _280
REMARK  116  A    between atoms: _280  and  _281
REMARK  117  A    between atoms: _283  and  _285
REMARK  118  A    between atoms: _285  and  _286
REMARK  119  A    between atoms: _285  and  _288
REMARK  120  A    between atoms: _288  and  _289
REMARK  121  A    between atoms: _292  and  _294
REMARK  122  A    between atoms: _294  and  _295
REMARK  123  A    between atoms: _294  and  _297
REMARK  124  A    between atoms: _297  and  _298
REMARK  125  A    between atoms: _301  and  _303
REMARK  126  A    between atoms: _303  and  _304
REMARK  127  A    between atoms: _303  and  _306
REMARK  128  A    between atoms: _306  and  _307
REMARK  129  A    between atoms: _307  and  _308
REMARK  130  A    between atoms: _310  and  _312
REMARK  131  A    between atoms: _312  and  _313
REMARK  132  A    between atoms: _312  and  _315
REMARK  133  A    between atoms: _318  and  _320
REMARK  134  A    between atoms: _320  and  _321
REMARK  135  A    between atoms: _320  and  _323
REMARK  136  A    between atoms: _323  and  _324
REMARK  137  A    between atoms: _324  and  _325
REMARK  138  A    between atoms: _328  and  _330
REMARK  139  A    between atoms: _330  and  _331
REMARK  140  A    between atoms: _330  and  _333
REMARK  141  A    between atoms: _333  and  _334
REMARK  142  A    between atoms: _334  and  _335
REMARK  143  A    between atoms: _335  and  _336
REMARK  144  A    between atoms: _336  and  _337
REMARK  145  A    between atoms: _341  and  _343
REMARK  146  A    between atoms: _343  and  _344
REMARK  147  A    between atoms: _343  and  _346
REMARK  148  A    between atoms: _346  and  _347
REMARK  149  A    between atoms: _347  and  _348
REMARK  150  A    between atoms: _348  and  _349
REMARK  151  A    between atoms: _349  and  _350
REMARK  152  A    between atoms: _354  and  _356
REMARK  153  A    between atoms: _356  and  _357
REMARK  154  A    between atoms: _356  and  _359
REMARK  155  A    between atoms: _359  and  _360
REMARK  156  A    between atoms: _366  and  _368
REMARK  157  A    between atoms: _368  and  _369
REMARK  158  A    between atoms: _368  and  _371
REMARK  159  A    between atoms: _371  and  _372
REMARK  160  A    between atoms: _374  and  _376
REMARK  161  A    between atoms: _376  and  _377
REMARK  162  A    between atoms: _376  and  _379
REMARK  163  A    between atoms: _379  and  _380
REMARK  164  A    between atoms: _380  and  _381
REMARK  165  A    between atoms: _381  and  _382
REMARK  166  A    between atoms: _382  and  _383
REMARK  167  A    between atoms: _387  and  _389
REMARK  168  A    between atoms: _389  and  _390
REMARK  169  A    between atoms: _389  and  _392
REMARK  170  A    between atoms: _392  and  _393
REMARK  171  A    between atoms: _399  and  _401
REMARK  172  A    between atoms: _401  and  _402
REMARK  173  A    between atoms: _401  and  _404
REMARK  174  A    between atoms: _404  and  _405
REMARK  175  A    between atoms: _408  and  _410
REMARK  176  A    between atoms: _410  and  _411
REMARK  177  A    between atoms: _410  and  _413
REMARK  178  A    between atoms: _413  and  _414
REMARK  179  A    between atoms: _419  and  _421
REMARK  180  A    between atoms: _421  and  _422
REMARK  181  A    between atoms: _424  and  _426
REMARK  182  A    between atoms: _426  and  _427
REMARK  183  A    between atoms: _426  and  _429
REMARK  184  A    between atoms: _429  and  _430
REMARK                            x       y       z     vdW  Elec       q    Type
REMARK                         _______ _______ _______ _____ _____    ______ ____
ROOT
ATOM      1  CA  THR A   2       2.225  13.406  16.590  0.00  0.00    +0.176 C 
ENDROOT
BRANCH   1   3
ATOM      2  C   ILE A   1       2.940  12.822  14.346  0.00  0.00    +0.238 C 
ATOM      3  N   THR A   2       2.489  12.435  15.534  0.00  0.00    -0.295 N 
ATOM      4  H   THR A   2       2.322  11.424  15.714  0.00  0.00    +0.150 HD
ATOM      5  O   ILE A   1       3.140  13.996  14.068  0.00  0.00    -0.274 OA
BRANCH   2   6
ATOM      6  CA  ILE A   1       3.198  11.730  13.310  0.00  0.00    +0.145 C 
BRANCH   6   7
ATOM      7  N   ILE A   1       2.408  11.996  12.111  0.00  0.00    -0.238 NA
ATOM      8  H   ILE A   1       2.466  12.930  11.657  0.00  0.00    +0.142 HD
ENDBRANCH   6   7
BRANCH   6   9
ATOM      9  CB  ILE A   1       4.698  11.698  13.004  0.00  0.00    +0.025 C 
ATOM     10  CG2 ILE A   1       5.496  11.383  14.272  0.00  0.00    +0.002 C 
BRANCH   9  11
ATOM     11  CG1 ILE A   1       4.987  10.676  11.905  0.00  0.00    +0.002 C 
ATOM     12  CD1 ILE A   1       6.455  10.335  11.757  0.00  0.00    +0.000 C 
ENDBRANCH   9  11
ENDBRANCH   6   9
ENDBRANCH   2   6
ENDBRANCH   1   3
BRANCH   1  13
ATOM     13  C   THR A   2       3.074  13.119  17.835  0.00  0.00    +0.243 C 
ATOM     14  N   SER A   3       3.730  14.145  18.364  0.00  0.00    -0.296 N 
ATOM     15  H   SER A   3       3.688  15.081  17.913  0.00  0.00    +0.150 HD
ATOM     16  O   THR A   2       3.131  11.992  18.313  0.00  0.00    -0.273 OA
BRANCH  14  17
ATOM     17  CA  SER A   3       4.509  13.951  19.580  0.00  0.00    +0.166 C 
BRANCH  17  18
ATOM     18  C   SER A   3       4.095  14.963  20.634  0.00  0.00    +0.229 C 
ATOM     19  O   SER A   3       3.941  16.142  20.324  0.00  0.00    -0.286 OA
ENDBRANCH  17  18
BRANCH  17  20
ATOM     20  CB  SER A   3       5.995  14.137  19.277  0.00  0.00    +0.165 C 
BRANCH  20  21
ATOM     21  OG  SER A   3       6.385  13.336  18.179  0.00  0.00    -0.380 OA
ATOM     22  H   SER A   3       5.860  13.595  17.380  0.00  0.00    +0.211 HD
ENDBRANCH  20  21
ENDBRANCH  17  20
ENDBRANCH  14  17
ENDBRANCH   1  13
BRANCH   1  23
ATOM     23  CB  THR A   2       0.730  13.436  16.980  0.00  0.00    +0.137 C 
ATOM     24  CG2 THR A   2       0.457  14.584  17.945  0.00  0.00    +0.034 C 
BRANCH  23  25
ATOM     25  OG1 THR A   2      -0.064  13.627  15.803  0.00  0.00    -0.382 OA
ATOM     26  HG1 THR A   2       0.099  12.882  15.172  0.00  0.00    +0.210 HD
ENDBRANCH  23  25
ENDBRANCH   1  23
TORSDOF 12
REMARK  Name = ../refined-set-2016/3g3r/3g3r_pocket.pdb
REMARK  184 active torsions:
REMARK  status: ('A' for Active; 'I' for Inactive)
REMARK    1  A    between atoms: _1  and  _3
REMARK    2  A    between atoms: _3  and  _4
REMARK    3  A    between atoms: _3  and  _6
REMARK    4  A    between atoms: _6  and  _7
REMARK    5  A    between atoms: _10  and  _12
REMARK    6  A    between atoms: _12  and  _13
REMARK    7  A    between atoms: _12  and  _15
REMARK    8  A    between atoms: _15  and  _16
REMARK    9  A    between atoms: _16  and  _17
REMARK   10  A    between atoms: _17  and  _18
REMARK   11  A    between atoms: _18  and  _19
REMARK   12  A    between atoms: _23  and  _25
REMARK   13  A    between atoms: _25  and  _26
REMARK   14  A    between atoms: _25  and  _28
REMARK   15  A    between atoms: _28  and  _29
REMARK   16  A    between atoms: _39  and  _41
REMARK   17  A    between atoms: _41  and  _42
REMARK   18  A    between atoms: _41  and  _44
REMARK   19  A    between atoms: _44  and  _45
REMARK   20  A    between atoms: _48  and  _50
REMARK   21  A    between atoms: _50  and  _51
REMARK   22  A    between atoms: _50  and  _53
REMARK   23  A    between atoms: _53  and  _54
REMARK   24  A    between atoms: _57  and  _59
REMARK   25  A    between atoms: _59  and  _60
REMARK   26  A    between atoms: _59  and  _62
REMARK   27  A    between atoms: _62  and  _63
REMARK   28  A    between atoms: _65  and  _67
REMARK   29  A    between atoms: _67  and  _68
REMARK   30  A    between atoms: _67  and  _70
REMARK   31  A    between atoms: _70  and  _71
REMARK   32  A    between atoms: _76  and  _77
REMARK   33  A    between atoms: _79  and  _81
REMARK   34  A    between atoms: _81  and  _82
REMARK   35  A    between atoms: _81  and  _84
REMARK   36  A    between atoms: _84  and  _85
REMARK   37  A    between atoms: _85  and  _86
REMARK   38  A    between atoms: _86  and  _87
REMARK   39  A    between atoms: _96  and  _98
REMARK   40  A    between atoms: _98  and  _99
REMARK   41  A    between atoms: _98  and  _101
REMARK   42  A    between atoms: _101  and  _102
REMARK   43  A    between atoms: _102  and  _103
REMARK   44  A    between atoms: _103  and  _104
REMARK   45  A    between atoms: _104  and  _105
REMARK   46  A    between atoms: _109  and  _111
REMARK   47  A    between atoms: _111  and  _112
REMARK   48  A    between atoms: _115  and  _117
REMARK   49  A    between atoms: _117  and  _118
REMARK   50  A    between atoms: _117  and  _120
REMARK   51  A    between atoms: _120  and  _121
REMARK   52  A    between atoms: _121  and  _122
REMARK   53  A    between atoms: _122  and  _123
REMARK   54  A    between atoms: _132  and  _134
REMARK   55  A    between atoms: _134  and  _135
REMARK   56  A    between atoms: _134  and  _137
REMARK   57  A    between atoms: _137  and  _138
REMARK   58  A    between atoms: _138  and  _139
REMARK   59  A    between atoms: _139  and  _140
REMARK   60  A    between atoms: _149  and  _151
REMARK   61  A    between atoms: _151  and  _152
REMARK   62  A    between atoms: _151  and  _154
REMARK   63  A    between atoms: _154  and  _155
REMARK   64  A    between atoms: _160  and  _161
REMARK   65  A    between atoms: _163  and  _165
REMARK   66  A    between atoms: _165  and  _166
REMARK   67  A    between atoms: _165  and  _168
REMARK   68  A    between atoms: _168  and  _169
REMARK   69  A    between atoms: _169  and  _170
REMARK   70  A    between atoms: _173  and  _175
REMARK   71  A    between atoms: _175  and  _176
REMARK   72  A    between atoms: _175  and  _178
REMARK   73  A    between atoms: _178  and  _179
REMARK   74  A    between atoms: _179  and  _180
REMARK   75  A    between atoms: _180  and  _181
REMARK   76  A    between atoms: _181  and  _182
REMARK   77  A    between atoms: _186  and  _188
REMARK   78  A    between atoms: _188  and  _189
REMARK   79  A    between atoms: _188  and  _191
REMARK   80  A    between atoms: _191  and  _192
REMARK   81  A    between atoms: _194  and  _196
REMARK   82  A    between atoms: _196  and  _197
REMARK   83  A    between atoms: _196  and  _199
REMARK   84  A    between atoms: _199  and  _200
REMARK   85  A    between atoms: _200  and  _201
REMARK   86  A    between atoms: _201  and  _202
REMARK   87  A    between atoms: _202  and  _203
REMARK   88  A    between atoms: _207  and  _209
REMARK   89  A    between atoms: _209  and  _210
REMARK   90  A    between atoms: _209  and  _212
REMARK   91  A    between atoms: _212  and  _213
REMARK   92  A    between atoms: _213  and  _214
REMARK   93  A    between atoms: _214  and  _215
REMARK   94  A    between atoms: _224  and  _226
REMARK   95  A    between atoms: _226  and  _227
REMARK   96  A    between atoms: _226  and  _229
REMARK   97  A    between atoms: _229  and  _230
REMARK   98  A    between atoms: _232  and  _234
REMARK   99  A    between atoms: _234  and  _235
REMARK  100  A    between atoms: _234  and  _237
REMARK  101  A    between atoms: _237  and  _238
REMARK  102  A    between atoms: _244  and  _246
REMARK  103  A    between atoms: _246  and  _247
REMARK  104  A    between atoms: _246  and  _249
REMARK  105  A    between atoms: _249  and  _250
REMARK  106  A    between atoms: _255  and  _256
REMARK  107  A    between atoms: _258  and  _260
REMARK  108  A    between atoms: _260  and  _261
REMARK  109  A    between atoms: _260  and  _263
REMARK  110  A    between atoms: _263  and  _264
REMARK  111  A    between atoms: _264  and  _265
REMARK  112  A    between atoms: _265  and  _266
REMARK  113  A    between atoms: _275  and  _277
REMARK  114  A    between atoms: _277  and  _278
REMARK  115  A    between atoms: _277  and  _280
REMARK  116  A    between atoms: _280  and  _281
REMARK  117  A    between atoms: _283  and  _285
REMARK  118  A    between atoms: _285  and  _286
REMARK  119  A    between atoms: _285  and  _288
REMARK  120  A    between atoms: _288  and  _289
REMARK  121  A    between atoms: _292  and  _294
REMARK  122  A    between atoms: _294  and  _295
REMARK  123  A    between atoms: _294  and  _297
REMARK  124  A    between atoms: _297  and  _298
REMARK  125  A    between atoms: _301  and  _303
REMARK  126  A    between atoms: _303  and  _304
REMARK  127  A    between atoms: _303  and  _306
REMARK  128  A    between atoms: _306  and  _307
REMARK  129  A    between atoms: _307  and  _308
REMARK  130  A    between atoms: _310  and  _312
REMARK  131  A    between atoms: _312  and  _313
REMARK  132  A    between atoms: _312  and  _315
REMARK  133  A    between atoms: _318  and  _320
REMARK  134  A    between atoms: _320  and  _321
REMARK  135  A    between atoms: _320  and  _323
REMARK  136  A    between atoms: _323  and  _324
REMARK  137  A    between atoms: _324  and  _325
REMARK  138  A    between atoms: _328  and  _330
REMARK  139  A    between atoms: _330  and  _331
REMARK  140  A    between atoms: _330  and  _333
REMARK  141  A    between atoms: _333  and  _334
REMARK  142  A    between atoms: _334  and  _335
REMARK  143  A    between atoms: _335  and  _336
REMARK  144  A    between atoms: _336  and  _337
REMARK  145  A    between atoms: _341  and  _343
REMARK  146  A    between atoms: _343  and  _344
REMARK  147  A    between atoms: _343  and  _346
REMARK  148  A    between atoms: _346  and  _347
REMARK  149  A    between atoms: _347  and  _348
REMARK  150  A    between atoms: _348  and  _349
REMARK  151  A    between atoms: _349  and  _350
REMARK  152  A    between atoms: _354  and  _356
REMARK  153  A    between atoms: _356  and  _357
REMARK  154  A    between atoms: _356  and  _359
REMARK  155  A    between atoms: _359  and  _360
REMARK  156  A    between atoms: _366  and  _368
REMARK  157  A    between atoms: _368  and  _369
REMARK  158  A    between atoms: _368  and  _371
REMARK  159  A    between atoms: _371  and  _372
REMARK  160  A    between atoms: _374  and  _376
REMARK  161  A    between atoms: _376  and  _377
REMARK  162  A    between atoms: _376  and  _379
REMARK  163  A    between atoms: _379  and  _380
REMARK  164  A    between atoms: _380  and  _381
REMARK  165  A    between atoms: _381  and  _382
REMARK  166  A    between atoms: _382  and  _383
REMARK  167  A    between atoms: _387  and  _389
REMARK  168  A    between atoms: _389  and  _390
REMARK  169  A    between atoms: _389  and  _392
REMARK  170  A    between atoms: _392  and  _393
REMARK  171  A    between atoms: _399  and  _401
REMARK  172  A    between atoms: _401  and  _402
REMARK  173  A    between atoms: _401  and  _404
REMARK  174  A    between atoms: _404  and  _405
REMARK  175  A    between atoms: _408  and  _410
REMARK  176  A    between atoms: _410  and  _411
REMARK  177  A    between atoms: _410  and  _413
REMARK  178  A    between atoms: _413  and  _414
REMARK  179  A    between atoms: _419  and  _421
REMARK  180  A    between atoms: _421  and  _422
REMARK  181  A    between atoms: _424  and  _426
REMARK  182  A    between atoms: _426  and  _427
REMARK  183  A    between atoms: _426  and  _429
REMARK  184  A    between atoms: _429  and  _430
REMARK                            x       y       z     vdW  Elec       q    Type
REMARK                         _______ _______ _______ _____ _____    ______ ____
ROOT
ATOM      1  CG  TYR A   1       8.341  17.585  22.582  0.00  0.00    -0.020 A 
ATOM      2  CD2 TYR A   1       9.591  16.970  22.641  0.00  0.00    -0.001 A 
ATOM      3  CE2 TYR A   1      10.220  16.499  21.500  0.00  0.00    +0.036 A 
ATOM      4  CZ  TYR A   1       9.593  16.642  20.282  0.00  0.00    +0.134 A 
ATOM      5  CE1 TYR A   1       8.353  17.242  20.187  0.00  0.00    +0.036 A 
ATOM      6  CD1 TYR A   1       7.724  17.706  21.336  0.00  0.00    -0.001 A 
ENDROOT
BRANCH   4   7
ATOM      7  OH  TYR A   1      10.205  16.188  19.152  0.00  0.00    -0.506 OA
ATOM      8  HH  TYR A   1       9.634  15.504  18.721  0.00  0.00    +0.292 HD
ENDBRANCH   4   7
BRANCH   1   9
ATOM      9  CB  TYR A   1       7.664  18.085  23.836  0.00  0.00    +0.051 C 
BRANCH   9  10
ATOM     10  CA  TYR A   1       6.778  17.023  24.524  0.00  0.00    +0.137 C 
BRANCH  10  11
ATOM     11  N   TYR A   1       5.557  16.787  23.768  0.00  0.00    -0.239 NA
ATOM     12  H   TYR A   1       5.149  17.554  23.196  0.00  0.00    +0.142 HD
ENDBRANCH  10  11
BRANCH  10  13
ATOM     13  C   TYR A   1       6.461  17.448  25.942  0.00  0.00    +0.224 C 
ATOM     14  O   TYR A   1       5.593  18.305  26.178  0.00  0.00    -0.287 OA
ENDBRANCH  10  13
ENDBRANCH   9  10
ENDBRANCH   1   9
TORSDOF 5
REMARK  Name = ../refined-set-2016/3g3r/3g3r_pocket.pdb
REMARK  184 active torsions:
REMARK  status: ('A' for Active; 'I' for Inactive)
REMARK    1  A    between atoms: _1  and  _3
REMARK    2  A    between atoms: _3  and  _4
REMARK    3  A    between atoms: _3  and  _6
REMARK    4  A    between atoms: _6  and  _7
REMARK    5  A    between atoms: _10  and  _12
REMARK    6  A    between atoms: _12  and  _13
REMARK    7  A    between atoms: _12  and  _15
REMARK    8  A    between atoms: _15  and  _16
REMARK    9  A    between atoms: _16  and  _17
REMARK   10  A    between atoms: _17  and  _18
REMARK   11  A    between atoms: _18  and  _19
REMARK   12  A    between atoms: _23  and  _25
REMARK   13  A    between atoms: _25  and  _26
REMARK   14  A    between atoms: _25  and  _28
REMARK   15  A    between atoms: _28  and  _29
REMARK   16  A    between atoms: _39  and  _41
REMARK   17  A    between atoms: _41  and  _42
REMARK   18  A    between atoms: _41  and  _44
REMARK   19  A    between atoms: _44  and  _45
REMARK   20  A    between atoms: _48  and  _50
REMARK   21  A    between atoms: _50  and  _51
REMARK   22  A    between atoms: _50  and  _53
REMARK   23  A    between atoms: _53  and  _54
REMARK   24  A    between atoms: _57  and  _59
REMARK   25  A    between atoms: _59  and  _60
REMARK   26  A    between atoms: _59  and  _62
REMARK   27  A    between atoms: _62  and  _63
REMARK   28  A    between atoms: _65  and  _67
REMARK   29  A    between atoms: _67  and  _68
REMARK   30  A    between atoms: _67  and  _70
REMARK   31  A    between atoms: _70  and  _71
REMARK   32  A    between atoms: _76  and  _77
REMARK   33  A    between atoms: _79  and  _81
REMARK   34  A    between atoms: _81  and  _82
REMARK   35  A    between atoms: _81  and  _84
REMARK   36  A    between atoms: _84  and  _85
REMARK   37  A    between atoms: _85  and  _86
REMARK   38  A    between atoms: _86  and  _87
REMARK   39  A    between atoms: _96  and  _98
REMARK   40  A    between atoms: _98  and  _99
REMARK   41  A    between atoms: _98  and  _101
REMARK   42  A    between atoms: _101  and  _102
REMARK   43  A    between atoms: _102  and  _103
REMARK   44  A    between atoms: _103  and  _104
REMARK   45  A    between atoms: _104  and  _105
REMARK   46  A    between atoms: _109  and  _111
REMARK   47  A    between atoms: _111  and  _112
REMARK   48  A    between atoms: _115  and  _117
REMARK   49  A    between atoms: _117  and  _118
REMARK   50  A    between atoms: _117  and  _120
REMARK   51  A    between atoms: _120  and  _121
REMARK   52  A    between atoms: _121  and  _122
REMARK   53  A    between atoms: _122  and  _123
REMARK   54  A    between atoms: _132  and  _134
REMARK   55  A    between atoms: _134  and  _135
REMARK   56  A    between atoms: _134  and  _137
REMARK   57  A    between atoms: _137  and  _138
REMARK   58  A    between atoms: _138  and  _139
REMARK   59  A    between atoms: _139  and  _140
REMARK   60  A    between atoms: _149  and  _151
REMARK   61  A    between atoms: _151  and  _152
REMARK   62  A    between atoms: _151  and  _154
REMARK   63  A    between atoms: _154  and  _155
REMARK   64  A    between atoms: _160  and  _161
REMARK   65  A    between atoms: _163  and  _165
REMARK   66  A    between atoms: _165  and  _166
REMARK   67  A    between atoms: _165  and  _168
REMARK   68  A    between atoms: _168  and  _169
REMARK   69  A    between atoms: _169  and  _170
REMARK   70  A    between atoms: _173  and  _175
REMARK   71  A    between atoms: _175  and  _176
REMARK   72  A    between atoms: _175  and  _178
REMARK   73  A    between atoms: _178  and  _179
REMARK   74  A    between atoms: _179  and  _180
REMARK   75  A    between atoms: _180  and  _181
REMARK   76  A    between atoms: _181  and  _182
REMARK   77  A    between atoms: _186  and  _188
REMARK   78  A    between atoms: _188  and  _189
REMARK   79  A    between atoms: _188  and  _191
REMARK   80  A    between atoms: _191  and  _192
REMARK   81  A    between atoms: _194  and  _196
REMARK   82  A    between atoms: _196  and  _197
REMARK   83  A    between atoms: _196  and  _199
REMARK   84  A    between atoms: _199  and  _200
REMARK   85  A    between atoms: _200  and  _201
REMARK   86  A    between atoms: _201  and  _202
REMARK   87  A    between atoms: _202  and  _203
REMARK   88  A    between atoms: _207  and  _209
REMARK   89  A    between atoms: _209  and  _210
REMARK   90  A    between atoms: _209  and  _212
REMARK   91  A    between atoms: _212  and  _213
REMARK   92  A    between atoms: _213  and  _214
REMARK   93  A    between atoms: _214  and  _215
REMARK   94  A    between atoms: _224  and  _226
REMARK   95  A    between atoms: _226  and  _227
REMARK   96  A    between atoms: _226  and  _229
REMARK   97  A    between atoms: _229  and  _230
REMARK   98  A    between atoms: _232  and  _234
REMARK   99  A    between atoms: _234  and  _235
REMARK  100  A    between atoms: _234  and  _237
REMARK  101  A    between atoms: _237  and  _238
REMARK  102  A    between atoms: _244  and  _246
REMARK  103  A    between atoms: _246  and  _247
REMARK  104  A    between atoms: _246  and  _249
REMARK  105  A    between atoms: _249  and  _250
REMARK  106  A    between atoms: _255  and  _256
REMARK  107  A    between atoms: _258  and  _260
REMARK  108  A    between atoms: _260  and  _261
REMARK  109  A    between atoms: _260  and  _263
REMARK  110  A    between atoms: _263  and  _264
REMARK  111  A    between atoms: _264  and  _265
REMARK  112  A    between atoms: _265  and  _266
REMARK  113  A    between atoms: _275  and  _277
REMARK  114  A    between atoms: _277  and  _278
REMARK  115  A    between atoms: _277  and  _280
REMARK  116  A    between atoms: _280  and  _281
REMARK  117  A    between atoms: _283  and  _285
REMARK  118  A    between atoms: _285  and  _286
REMARK  119  A    between atoms: _285  and  _288
REMARK  120  A    between atoms: _288  and  _289
REMARK  121  A    between atoms: _292  and  _294
REMARK  122  A    between atoms: _294  and  _295
REMARK  123  A    between atoms: _294  and  _297
REMARK  124  A    between atoms: _297  and  _298
REMARK  125  A    between atoms: _301  and  _303
REMARK  126  A    between atoms: _303  and  _304
REMARK  127  A    between atoms: _303  and  _306
REMARK  128  A    between atoms: _306  and  _307
REMARK  129  A    between atoms: _307  and  _308
REMARK  130  A    between atoms: _310  and  _312
REMARK  131  A    between atoms: _312  and  _313
REMARK  132  A    between atoms: _312  and  _315
REMARK  133  A    between atoms: _318  and  _320
REMARK  134  A    between atoms: _320  and  _321
REMARK  135  A    between atoms: _320  and  _323
REMARK  136  A    between atoms: _323  and  _324
REMARK  137  A    between atoms: _324  and  _325
REMARK  138  A    between atoms: _328  and  _330
REMARK  139  A    between atoms: _330  and  _331
REMARK  140  A    between atoms: _330  and  _333
REMARK  141  A    between atoms: _333  and  _334
REMARK  142  A    between atoms: _334  and  _335
REMARK  143  A    between atoms: _335  and  _336
REMARK  144  A    between atoms: _336  and  _337
REMARK  145  A    between atoms: _341  and  _343
REMARK  146  A    between atoms: _343  and  _344
REMARK  147  A    between atoms: _343  and  _346
REMARK  148  A    between atoms: _346  and  _347
REMARK  149  A    between atoms: _347  and  _348
REMARK  150  A    between atoms: _348  and  _349
REMARK  151  A    between atoms: _349  and  _350
REMARK  152  A    between atoms: _354  and  _356
REMARK  153  A    between atoms: _356  and  _357
REMARK  154  A    between atoms: _356  and  _359
REMARK  155  A    between atoms: _359  and  _360
REMARK  156  A    between atoms: _366  and  _368
REMARK  157  A    between atoms: _368  and  _369
REMARK  158  A    between atoms: _368  and  _371
REMARK  159  A    between atoms: _371  and  _372
REMARK  160  A    between atoms: _374  and  _376
REMARK  161  A    between atoms: _376  and  _377
REMARK  162  A    between atoms: _376  and  _379
REMARK  163  A    between atoms: _379  and  _380
REMARK  164  A    between atoms: _380  and  _381
REMARK  165  A    between atoms: _381  and  _382
REMARK  166  A    between atoms: _382  and  _383
REMARK  167  A    between atoms: _387  and  _389
REMARK  168  A    between atoms: _389  and  _390
REMARK  169  A    between atoms: _389  and  _392
REMARK  170  A    between atoms: _392  and  _393
REMARK  171  A    between atoms: _399  and  _401
REMARK  172  A    between atoms: _401  and  _402
REMARK  173  A    between atoms: _401  and  _404
REMARK  174  A    between atoms: _404  and  _405
REMARK  175  A    between atoms: _408  and  _410
REMARK  176  A    between atoms: _410  and  _411
REMARK  177  A    between atoms: _410  and  _413
REMARK  178  A    between atoms: _413  and  _414
REMARK  179  A    between atoms: _419  and  _421
REMARK  180  A    between atoms: _421  and  _422
REMARK  181  A    between atoms: _424  and  _426
REMARK  182  A    between atoms: _426  and  _427
REMARK  183  A    between atoms: _426  and  _429
REMARK  184  A    between atoms: _429  and  _430
REMARK                            x       y       z     vdW  Elec       q    Type
REMARK                         _______ _______ _______ _____ _____    ______ ____
ROOT
ATOM      1  NE  ARG A   1      17.187  17.799  23.094  0.00  0.00    -0.265 N 
ATOM      2  CZ  ARG A   1      17.804  16.777  22.507  0.00  0.00    +0.342 C 
ATOM      3  NH2 ARG A   1      18.609  15.985  23.208  0.00  0.00    -0.292 N 
ATOM      4 HH21 ARG A   1      18.760  16.163  24.222  0.00  0.00    +0.255 HD
ATOM      5 HH22 ARG A   1      19.088  15.188  22.743  0.00  0.00    +0.255 HD
ATOM      6  NH1 ARG A   1      17.612  16.540  21.215  0.00  0.00    -0.292 N 
ATOM      7 HH11 ARG A   1      18.094  15.741  20.756  0.00  0.00    +0.255 HD
ATOM      8 HH12 ARG A   1      16.979  17.153  20.662  0.00  0.00    +0.255 HD
ATOM      9  HE  ARG A   1      16.568  18.392  22.505  0.00  0.00    +0.259 HD
ENDROOT
BRANCH   1  10
ATOM     10  CD  ARG A   1      17.316  18.149  24.507  0.00  0.00    +0.174 C 
BRANCH  10  11
ATOM     11  CG  ARG A   1      16.500  19.379  24.867  0.00  0.00    +0.045 C 
BRANCH  11  12
ATOM     12  CB  ARG A   1      17.079  20.649  24.220  0.00  0.00    +0.029 C 
BRANCH  12  13
ATOM     13  CA  ARG A   1      18.430  21.092  24.802  0.00  0.00    +0.133 C 
BRANCH  13  14
ATOM     14  N   ARG A   1      18.301  21.441  26.212  0.00  0.00    -0.239 NA
ATOM     15  H   ARG A   1      17.352  21.542  26.626  0.00  0.00    +0.142 HD
ENDBRANCH  13  14
BRANCH  13  16
ATOM     16  C   ARG A   1      18.939  22.273  23.996  0.00  0.00    +0.224 C 
ATOM     17  O   ARG A   1      19.710  22.093  23.059  0.00  0.00    -0.287 OA
ENDBRANCH  13  16
ENDBRANCH  12  13
ENDBRANCH  11  12
ENDBRANCH  10  11
ENDBRANCH   1  10
TORSDOF 6
REMARK  Name = ../refined-set-2016/3g3r/3g3r_pocket.pdb
REMARK  184 active torsions:
REMARK  status: ('A' for Active; 'I' for Inactive)
REMARK    1  A    between atoms: _1  and  _3
REMARK    2  A    between atoms: _3  and  _4
REMARK    3  A    between atoms: _3  and  _6
REMARK    4  A    between atoms: _6  and  _7
REMARK    5  A    between atoms: _10  and  _12
REMARK    6  A    between atoms: _12  and  _13
REMARK    7  A    between atoms: _12  and  _15
REMARK    8  A    between atoms: _15  and  _16
REMARK    9  A    between atoms: _16  and  _17
REMARK   10  A    between atoms: _17  and  _18
REMARK   11  A    between atoms: _18  and  _19
REMARK   12  A    between atoms: _23  and  _25
REMARK   13  A    between atoms: _25  and  _26
REMARK   14  A    between atoms: _25  and  _28
REMARK   15  A    between atoms: _28  and  _29
REMARK   16  A    between atoms: _39  and  _41
REMARK   17  A    between atoms: _41  and  _42
REMARK   18  A    between atoms: _41  and  _44
REMARK   19  A    between atoms: _44  and  _45
REMARK   20  A    between atoms: _48  and  _50
REMARK   21  A    between atoms: _50  and  _51
REMARK   22  A    between atoms: _50  and  _53
REMARK   23  A    between atoms: _53  and  _54
REMARK   24  A    between atoms: _57  and  _59
REMARK   25  A    between atoms: _59  and  _60
REMARK   26  A    between atoms: _59  and  _62
REMARK   27  A    between atoms: _62  and  _63
REMARK   28  A    between atoms: _65  and  _67
REMARK   29  A    between atoms: _67  and  _68
REMARK   30  A    between atoms: _67  and  _70
REMARK   31  A    between atoms: _70  and  _71
REMARK   32  A    between atoms: _76  and  _77
REMARK   33  A    between atoms: _79  and  _81
REMARK   34  A    between atoms: _81  and  _82
REMARK   35  A    between atoms: _81  and  _84
REMARK   36  A    between atoms: _84  and  _85
REMARK   37  A    between atoms: _85  and  _86
REMARK   38  A    between atoms: _86  and  _87
REMARK   39  A    between atoms: _96  and  _98
REMARK   40  A    between atoms: _98  and  _99
REMARK   41  A    between atoms: _98  and  _101
REMARK   42  A    between atoms: _101  and  _102
REMARK   43  A    between atoms: _102  and  _103
REMARK   44  A    between atoms: _103  and  _104
REMARK   45  A    between atoms: _104  and  _105
REMARK   46  A    between atoms: _109  and  _111
REMARK   47  A    between atoms: _111  and  _112
REMARK   48  A    between atoms: _115  and  _117
REMARK   49  A    between atoms: _117  and  _118
REMARK   50  A    between atoms: _117  and  _120
REMARK   51  A    between atoms: _120  and  _121
REMARK   52  A    between atoms: _121  and  _122
REMARK   53  A    between atoms: _122  and  _123
REMARK   54  A    between atoms: _132  and  _134
REMARK   55  A    between atoms: _134  and  _135
REMARK   56  A    between atoms: _134  and  _137
REMARK   57  A    between atoms: _137  and  _138
REMARK   58  A    between atoms: _138  and  _139
REMARK   59  A    between atoms: _139  and  _140
REMARK   60  A    between atoms: _149  and  _151
REMARK   61  A    between atoms: _151  and  _152
REMARK   62  A    between atoms: _151  and  _154
REMARK   63  A    between atoms: _154  and  _155
REMARK   64  A    between atoms: _160  and  _161
REMARK   65  A    between atoms: _163  and  _165
REMARK   66  A    between atoms: _165  and  _166
REMARK   67  A    between atoms: _165  and  _168
REMARK   68  A    between atoms: _168  and  _169
REMARK   69  A    between atoms: _169  and  _170
REMARK   70  A    between atoms: _173  and  _175
REMARK   71  A    between atoms: _175  and  _176
REMARK   72  A    between atoms: _175  and  _178
REMARK   73  A    between atoms: _178  and  _179
REMARK   74  A    between atoms: _179  and  _180
REMARK   75  A    between atoms: _180  and  _181
REMARK   76  A    between atoms: _181  and  _182
REMARK   77  A    between atoms: _186  and  _188
REMARK   78  A    between atoms: _188  and  _189
REMARK   79  A    between atoms: _188  and  _191
REMARK   80  A    between atoms: _191  and  _192
REMARK   81  A    between atoms: _194  and  _196
REMARK   82  A    between atoms: _196  and  _197
REMARK   83  A    between atoms: _196  and  _199
REMARK   84  A    between atoms: _199  and  _200
REMARK   85  A    between atoms: _200  and  _201
REMARK   86  A    between atoms: _201  and  _202
REMARK   87  A    between atoms: _202  and  _203
REMARK   88  A    between atoms: _207  and  _209
REMARK   89  A    between atoms: _209  and  _210
REMARK   90  A    between atoms: _209  and  _212
REMARK   91  A    between atoms: _212  and  _213
REMARK   92  A    between atoms: _213  and  _214
REMARK   93  A    between atoms: _214  and  _215
REMARK   94  A    between atoms: _224  and  _226
REMARK   95  A    between atoms: _226  and  _227
REMARK   96  A    between atoms: _226  and  _229
REMARK   97  A    between atoms: _229  and  _230
REMARK   98  A    between atoms: _232  and  _234
REMARK   99  A    between atoms: _234  and  _235
REMARK  100  A    between atoms: _234  and  _237
REMARK  101  A    between atoms: _237  and  _238
REMARK  102  A    between atoms: _244  and  _246
REMARK  103  A    between atoms: _246  and  _247
REMARK  104  A    between atoms: _246  and  _249
REMARK  105  A    between atoms: _249  and  _250
REMARK  106  A    between atoms: _255  and  _256
REMARK  107  A    between atoms: _258  and  _260
REMARK  108  A    between atoms: _260  and  _261
REMARK  109  A    between atoms: _260  and  _263
REMARK  110  A    between atoms: _263  and  _264
REMARK  111  A    between atoms: _264  and  _265
REMARK  112  A    between atoms: _265  and  _266
REMARK  113  A    between atoms: _275  and  _277
REMARK  114  A    between atoms: _277  and  _278
REMARK  115  A    between atoms: _277  and  _280
REMARK  116  A    between atoms: _280  and  _281
REMARK  117  A    between atoms: _283  and  _285
REMARK  118  A    between atoms: _285  and  _286
REMARK  119  A    between atoms: _285  and  _288
REMARK  120  A    between atoms: _288  and  _289
REMARK  121  A    between atoms: _292  and  _294
REMARK  122  A    between atoms: _294  and  _295
REMARK  123  A    between atoms: _294  and  _297
REMARK  124  A    between atoms: _297  and  _298
REMARK  125  A    between atoms: _301  and  _303
REMARK  126  A    between atoms: _303  and  _304
REMARK  127  A    between atoms: _303  and  _306
REMARK  128  A    between atoms: _306  and  _307
REMARK  129  A    between atoms: _307  and  _308
REMARK  130  A    between atoms: _310  and  _312
REMARK  131  A    between atoms: _312  and  _313
REMARK  132  A    between atoms: _312  and  _315
REMARK  133  A    between atoms: _318  and  _320
REMARK  134  A    between atoms: _320  and  _321
REMARK  135  A    between atoms: _320  and  _323
REMARK  136  A    between atoms: _323  and  _324
REMARK  137  A    between atoms: _324  and  _325
REMARK  138  A    between atoms: _328  and  _330
REMARK  139  A    between atoms: _330  and  _331
REMARK  140  A    between atoms: _330  and  _333
REMARK  141  A    between atoms: _333  and  _334
REMARK  142  A    between atoms: _334  and  _335
REMARK  143  A    between atoms: _335  and  _336
REMARK  144  A    between atoms: _336  and  _337
REMARK  145  A    between atoms: _341  and  _343
REMARK  146  A    between atoms: _343  and  _344
REMARK  147  A    between atoms: _343  and  _346
REMARK  148  A    between atoms: _346  and  _347
REMARK  149  A    between atoms: _347  and  _348
REMARK  150  A    between atoms: _348  and  _349
REMARK  151  A    between atoms: _349  and  _350
REMARK  152  A    between atoms: _354  and  _356
REMARK  153  A    between atoms: _356  and  _357
REMARK  154  A    between atoms: _356  and  _359
REMARK  155  A    between atoms: _359  and  _360
REMARK  156  A    between atoms: _366  and  _368
REMARK  157  A    between atoms: _368  and  _369
REMARK  158  A    between atoms: _368  and  _371
REMARK  159  A    between atoms: _371  and  _372
REMARK  160  A    between atoms: _374  and  _376
REMARK  161  A    between atoms: _376  and  _377
REMARK  162  A    between atoms: _376  and  _379
REMARK  163  A    between atoms: _379  and  _380
REMARK  164  A    between atoms: _380  and  _381
REMARK  165  A    between atoms: _381  and  _382
REMARK  166  A    between atoms: _382  and  _383
REMARK  167  A    between atoms: _387  and  _389
REMARK  168  A    between atoms: _389  and  _390
REMARK  169  A    between atoms: _389  and  _392
REMARK  170  A    between atoms: _392  and  _393
REMARK  171  A    between atoms: _399  and  _401
REMARK  172  A    between atoms: _401  and  _402
REMARK  173  A    between atoms: _401  and  _404
REMARK  174  A    between atoms: _404  and  _405
REMARK  175  A    between atoms: _408  and  _410
REMARK  176  A    between atoms: _410  and  _411
REMARK  177  A    between atoms: _410  and  _413
REMARK  178  A    between atoms: _413  and  _414
REMARK  179  A    between atoms: _419  and  _421
REMARK  180  A    between atoms: _421  and  _422
REMARK  181  A    between atoms: _424  and  _426
REMARK  182  A    between atoms: _426  and  _427
REMARK  183  A    between atoms: _426  and  _429
REMARK  184  A    between atoms: _429  and  _430
REMARK                            x       y       z     vdW  Elec       q    Type
REMARK                         _______ _______ _______ _____ _____    ______ ____
ROOT
ATOM      1  CG  LYS A   1      23.307  22.103  21.627  0.00  0.00    -0.000 C 
ENDROOT
BRANCH   1   2
ATOM      2  CB  LYS A   1      24.041  21.624  22.864  0.00  0.00    +0.025 C 
BRANCH   2   3
ATOM      3  CA  LYS A   1      23.160  21.408  24.100  0.00  0.00    +0.133 C 
BRANCH   3   4
ATOM      4  N   LYS A   1      22.488  22.639  24.454  0.00  0.00    -0.239 NA
ATOM      5  H   LYS A   1      21.449  22.668  24.485  0.00  0.00    +0.142 HD
ENDBRANCH   3   4
BRANCH   3   6
ATOM      6  C   LYS A   1      24.034  20.926  25.253  0.00  0.00    +0.224 C 
ATOM      7  O   LYS A   1      25.157  20.473  25.026  0.00  0.00    -0.287 OA
ENDBRANCH   3   6
ENDBRANCH   2   3
ENDBRANCH   1   2
BRANCH   1   8
ATOM      8  CD  LYS A   1      22.837  20.937  20.773  0.00  0.00    -0.024 C 
BRANCH   8   9
ATOM      9  CE  LYS A   1      22.107  21.442  19.528  0.00  0.00    -0.086 C 
BRANCH   9  10
ATOM     10  NZ  LYS A   1      21.545  20.342  18.700  0.00  0.00    +0.380 N 
ATOM     11  HZ1 LYS A   1      20.865  19.796  19.267  0.00  0.00    -0.089 HD
ATOM     12  HZ2 LYS A   1      22.315  19.719  18.385  0.00  0.00    -0.089 HD
ATOM     13  HZ3 LYS A   1      21.063  20.745  17.871  0.00  0.00    -0.089 HD
ENDBRANCH   9  10
ENDBRANCH   8   9
ENDBRANCH   1   8
TORSDOF 7
REMARK  Name = ../refined-set-2016/3g3r/3g3r_pocket.pdb
REMARK  184 active torsions:
REMARK  status: ('A' for Active; 'I' for Inactive)
REMARK    1  A    between atoms: _1  and  _3
REMARK    2  A    between atoms: _3  and  _4
REMARK    3  A    between atoms: _3  and  _6
REMARK    4  A    between atoms: _6  and  _7
REMARK    5  A    between atoms: _10  and  _12
REMARK    6  A    between atoms: _12  and  _13
REMARK    7  A    between atoms: _12  and  _15
REMARK    8  A    between atoms: _15  and  _16
REMARK    9  A    between atoms: _16  and  _17
REMARK   10  A    between atoms: _17  and  _18
REMARK   11  A    between atoms: _18  and  _19
REMARK   12  A    between atoms: _23  and  _25
REMARK   13  A    between atoms: _25  and  _26
REMARK   14  A    between atoms: _25  and  _28
REMARK   15  A    between atoms: _28  and  _29
REMARK   16  A    between atoms: _39  and  _41
REMARK   17  A    between atoms: _41  and  _42
REMARK   18  A    between atoms: _41  and  _44
REMARK   19  A    between atoms: _44  and  _45
REMARK   20  A    between atoms: _48  and  _50
REMARK   21  A    between atoms: _50  and  _51
REMARK   22  A    between atoms: _50  and  _53
REMARK   23  A    between atoms: _53  and  _54
REMARK   24  A    between atoms: _57  and  _59
REMARK   25  A    between atoms: _59  and  _60
REMARK   26  A    between atoms: _59  and  _62
REMARK   27  A    between atoms: _62  and  _63
REMARK   28  A    between atoms: _65  and  _67
REMARK   29  A    between atoms: _67  and  _68
REMARK   30  A    between atoms: _67  and  _70
REMARK   31  A    between atoms: _70  and  _71
REMARK   32  A    between atoms: _76  and  _77
REMARK   33  A    between atoms: _79  and  _81
REMARK   34  A    between atoms: _81  and  _82
REMARK   35  A    between atoms: _81  and  _84
REMARK   36  A    between atoms: _84  and  _85
REMARK   37  A    between atoms: _85  and  _86
REMARK   38  A    between atoms: _86  and  _87
REMARK   39  A    between atoms: _96  and  _98
REMARK   40  A    between atoms: _98  and  _99
REMARK   41  A    between atoms: _98  and  _101
REMARK   42  A    between atoms: _101  and  _102
REMARK   43  A    between atoms: _102  and  _103
REMARK   44  A    between atoms: _103  and  _104
REMARK   45  A    between atoms: _104  and  _105
REMARK   46  A    between atoms: _109  and  _111
REMARK   47  A    between atoms: _111  and  _112
REMARK   48  A    between atoms: _115  and  _117
REMARK   49  A    between atoms: _117  and  _118
REMARK   50  A    between atoms: _117  and  _120
REMARK   51  A    between atoms: _120  and  _121
REMARK   52  A    between atoms: _121  and  _122
REMARK   53  A    between atoms: _122  and  _123
REMARK   54  A    between atoms: _132  and  _134
REMARK   55  A    between atoms: _134  and  _135
REMARK   56  A    between atoms: _134  and  _137
REMARK   57  A    between atoms: _137  and  _138
REMARK   58  A    between atoms: _138  and  _139
REMARK   59  A    between atoms: _139  and  _140
REMARK   60  A    between atoms: _149  and  _151
REMARK   61  A    between atoms: _151  and  _152
REMARK   62  A    between atoms: _151  and  _154
REMARK   63  A    between atoms: _154  and  _155
REMARK   64  A    between atoms: _160  and  _161
REMARK   65  A    between atoms: _163  and  _165
REMARK   66  A    between atoms: _165  and  _166
REMARK   67  A    between atoms: _165  and  _168
REMARK   68  A    between atoms: _168  and  _169
REMARK   69  A    between atoms: _169  and  _170
REMARK   70  A    between atoms: _173  and  _175
REMARK   71  A    between atoms: _175  and  _176
REMARK   72  A    between atoms: _175  and  _178
REMARK   73  A    between atoms: _178  and  _179
REMARK   74  A    between atoms: _179  and  _180
REMARK   75  A    between atoms: _180  and  _181
REMARK   76  A    between atoms: _181  and  _182
REMARK   77  A    between atoms: _186  and  _188
REMARK   78  A    between atoms: _188  and  _189
REMARK   79  A    between atoms: _188  and  _191
REMARK   80  A    between atoms: _191  and  _192
REMARK   81  A    between atoms: _194  and  _196
REMARK   82  A    between atoms: _196  and  _197
REMARK   83  A    between atoms: _196  and  _199
REMARK   84  A    between atoms: _199  and  _200
REMARK   85  A    between atoms: _200  and  _201
REMARK   86  A    between atoms: _201  and  _202
REMARK   87  A    between atoms: _202  and  _203
REMARK   88  A    between atoms: _207  and  _209
REMARK   89  A    between atoms: _209  and  _210
REMARK   90  A    between atoms: _209  and  _212
REMARK   91  A    between atoms: _212  and  _213
REMARK   92  A    between atoms: _213  and  _214
REMARK   93  A    between atoms: _214  and  _215
REMARK   94  A    between atoms: _224  and  _226
REMARK   95  A    between atoms: _226  and  _227
REMARK   96  A    between atoms: _226  and  _229
REMARK   97  A    between atoms: _229  and  _230
REMARK   98  A    between atoms: _232  and  _234
REMARK   99  A    between atoms: _234  and  _235
REMARK  100  A    between atoms: _234  and  _237
REMARK  101  A    between atoms: _237  and  _238
REMARK  102  A    between atoms: _244  and  _246
REMARK  103  A    between atoms: _246  and  _247
REMARK  104  A    between atoms: _246  and  _249
REMARK  105  A    between atoms: _249  and  _250
REMARK  106  A    between atoms: _255  and  _256
REMARK  107  A    between atoms: _258  and  _260
REMARK  108  A    between atoms: _260  and  _261
REMARK  109  A    between atoms: _260  and  _263
REMARK  110  A    between atoms: _263  and  _264
REMARK  111  A    between atoms: _264  and  _265
REMARK  112  A    between atoms: _265  and  _266
REMARK  113  A    between atoms: _275  and  _277
REMARK  114  A    between atoms: _277  and  _278
REMARK  115  A    between atoms: _277  and  _280
REMARK  116  A    between atoms: _280  and  _281
REMARK  117  A    between atoms: _283  and  _285
REMARK  118  A    between atoms: _285  and  _286
REMARK  119  A    between atoms: _285  and  _288
REMARK  120  A    between atoms: _288  and  _289
REMARK  121  A    between atoms: _292  and  _294
REMARK  122  A    between atoms: _294  and  _295
REMARK  123  A    between atoms: _294  and  _297
REMARK  124  A    between atoms: _297  and  _298
REMARK  125  A    between atoms: _301  and  _303
REMARK  126  A    between atoms: _303  and  _304
REMARK  127  A    between atoms: _303  and  _306
REMARK  128  A    between atoms: _306  and  _307
REMARK  129  A    between atoms: _307  and  _308
REMARK  130  A    between atoms: _310  and  _312
REMARK  131  A    between atoms: _312  and  _313
REMARK  132  A    between atoms: _312  and  _315
REMARK  133  A    between atoms: _318  and  _320
REMARK  134  A    between atoms: _320  and  _321
REMARK  135  A    between atoms: _320  and  _323
REMARK  136  A    between atoms: _323  and  _324
REMARK  137  A    between atoms: _324  and  _325
REMARK  138  A    between atoms: _328  and  _330
REMARK  139  A    between atoms: _330  and  _331
REMARK  140  A    between atoms: _330  and  _333
REMARK  141  A    between atoms: _333  and  _334
REMARK  142  A    between atoms: _334  and  _335
REMARK  143  A    between atoms: _335  and  _336
REMARK  144  A    between atoms: _336  and  _337
REMARK  145  A    between atoms: _341  and  _343
REMARK  146  A    between atoms: _343  and  _344
REMARK  147  A    between atoms: _343  and  _346
REMARK  148  A    between atoms: _346  and  _347
REMARK  149  A    between atoms: _347  and  _348
REMARK  150  A    between atoms: _348  and  _349
REMARK  151  A    between atoms: _349  and  _350
REMARK  152  A    between atoms: _354  and  _356
REMARK  153  A    between atoms: _356  and  _357
REMARK  154  A    between atoms: _356  and  _359
REMARK  155  A    between atoms: _359  and  _360
REMARK  156  A    between atoms: _366  and  _368
REMARK  157  A    between atoms: _368  and  _369
REMARK  158  A    between atoms: _368  and  _371
REMARK  159  A    between atoms: _371  and  _372
REMARK  160  A    between atoms: _374  and  _376
REMARK  161  A    between atoms: _376  and  _377
REMARK  162  A    between atoms: _376  and  _379
REMARK  163  A    between atoms: _379  and  _380
REMARK  164  A    between atoms: _380  and  _381
REMARK  165  A    between atoms: _381  and  _382
REMARK  166  A    between atoms: _382  and  _383
REMARK  167  A    between atoms: _387  and  _389
REMARK  168  A    between atoms: _389  and  _390
REMARK  169  A    between atoms: _389  and  _392
REMARK  170  A    between atoms: _392  and  _393
REMARK  171  A    between atoms: _399  and  _401
REMARK  172  A    between atoms: _401  and  _402
REMARK  173  A    between atoms: _401  and  _404
REMARK  174  A    between atoms: _404  and  _405
REMARK  175  A    between atoms: _408  and  _410
REMARK  176  A    between atoms: _410  and  _411
REMARK  177  A    between atoms: _410  and  _413
REMARK  178  A    between atoms: _413  and  _414
REMARK  179  A    between atoms: _419  and  _421
REMARK  180  A    between atoms: _421  and  _422
REMARK  181  A    between atoms: _424  and  _426
REMARK  182  A    between atoms: _426  and  _427
REMARK  183  A    between atoms: _426  and  _429
REMARK  184  A    between atoms: _429  and  _430
REMARK                            x       y       z     vdW  Elec       q    Type
REMARK                         _______ _______ _______ _____ _____    ______ ____
ROOT
ATOM      1  CA  ALA A   1      13.977  15.585  25.673  0.00  0.00    +0.133 C 
ATOM      2  CB  ALA A   1      13.947  16.077  24.234  0.00  0.00    +0.027 C 
ENDROOT
BRANCH   1   3
ATOM      3  N   ALA A   1      15.332  15.193  26.073  0.00  0.00    -0.239 NA
ATOM      4  H   ALA A   1      15.824  14.463  25.520  0.00  0.00    +0.142 HD
ENDBRANCH   1   3
BRANCH   1   5
ATOM      5  C   ALA A   1      13.062  14.361  25.830  0.00  0.00    +0.224 C 
ATOM      6  O   ALA A   1      13.449  13.251  25.464  0.00  0.00    -0.287 OA
ENDBRANCH   1   5
TORSDOF 2
REMARK  Name = ../refined-set-2016/3g3r/3g3r_pocket.pdb
REMARK  184 active torsions:
REMARK  status: ('A' for Active; 'I' for Inactive)
REMARK    1  A    between atoms: _1  and  _3
REMARK    2  A    between atoms: _3  and  _4
REMARK    3  A    between atoms: _3  and  _6
REMARK    4  A    between atoms: _6  and  _7
REMARK    5  A    between atoms: _10  and  _12
REMARK    6  A    between atoms: _12  and  _13
REMARK    7  A    between atoms: _12  and  _15
REMARK    8  A    between atoms: _15  and  _16
REMARK    9  A    between atoms: _16  and  _17
REMARK   10  A    between atoms: _17  and  _18
REMARK   11  A    between atoms: _18  and  _19
REMARK   12  A    between atoms: _23  and  _25
REMARK   13  A    between atoms: _25  and  _26
REMARK   14  A    between atoms: _25  and  _28
REMARK   15  A    between atoms: _28  and  _29
REMARK   16  A    between atoms: _39  and  _41
REMARK   17  A    between atoms: _41  and  _42
REMARK   18  A    between atoms: _41  and  _44
REMARK   19  A    between atoms: _44  and  _45
REMARK   20  A    between atoms: _48  and  _50
REMARK   21  A    between atoms: _50  and  _51
REMARK   22  A    between atoms: _50  and  _53
REMARK   23  A    between atoms: _53  and  _54
REMARK   24  A    between atoms: _57  and  _59
REMARK   25  A    between atoms: _59  and  _60
REMARK   26  A    between atoms: _59  and  _62
REMARK   27  A    between atoms: _62  and  _63
REMARK   28  A    between atoms: _65  and  _67
REMARK   29  A    between atoms: _67  and  _68
REMARK   30  A    between atoms: _67  and  _70
REMARK   31  A    between atoms: _70  and  _71
REMARK   32  A    between atoms: _76  and  _77
REMARK   33  A    between atoms: _79  and  _81
REMARK   34  A    between atoms: _81  and  _82
REMARK   35  A    between atoms: _81  and  _84
REMARK   36  A    between atoms: _84  and  _85
REMARK   37  A    between atoms: _85  and  _86
REMARK   38  A    between atoms: _86  and  _87
REMARK   39  A    between atoms: _96  and  _98
REMARK   40  A    between atoms: _98  and  _99
REMARK   41  A    between atoms: _98  and  _101
REMARK   42  A    between atoms: _101  and  _102
REMARK   43  A    between atoms: _102  and  _103
REMARK   44  A    between atoms: _103  and  _104
REMARK   45  A    between atoms: _104  and  _105
REMARK   46  A    between atoms: _109  and  _111
REMARK   47  A    between atoms: _111  and  _112
REMARK   48  A    between atoms: _115  and  _117
REMARK   49  A    between atoms: _117  and  _118
REMARK   50  A    between atoms: _117  and  _120
REMARK   51  A    between atoms: _120  and  _121
REMARK   52  A    between atoms: _121  and  _122
REMARK   53  A    between atoms: _122  and  _123
REMARK   54  A    between atoms: _132  and  _134
REMARK   55  A    between atoms: _134  and  _135
REMARK   56  A    between atoms: _134  and  _137
REMARK   57  A    between atoms: _137  and  _138
REMARK   58  A    between atoms: _138  and  _139
REMARK   59  A    between atoms: _139  and  _140
REMARK   60  A    between atoms: _149  and  _151
REMARK   61  A    between atoms: _151  and  _152
REMARK   62  A    between atoms: _151  and  _154
REMARK   63  A    between atoms: _154  and  _155
REMARK   64  A    between atoms: _160  and  _161
REMARK   65  A    between atoms: _163  and  _165
REMARK   66  A    between atoms: _165  and  _166
REMARK   67  A    between atoms: _165  and  _168
REMARK   68  A    between atoms: _168  and  _169
REMARK   69  A    between atoms: _169  and  _170
REMARK   70  A    between atoms: _173  and  _175
REMARK   71  A    between atoms: _175  and  _176
REMARK   72  A    between atoms: _175  and  _178
REMARK   73  A    between atoms: _178  and  _179
REMARK   74  A    between atoms: _179  and  _180
REMARK   75  A    between atoms: _180  and  _181
REMARK   76  A    between atoms: _181  and  _182
REMARK   77  A    between atoms: _186  and  _188
REMARK   78  A    between atoms: _188  and  _189
REMARK   79  A    between atoms: _188  and  _191
REMARK   80  A    between atoms: _191  and  _192
REMARK   81  A    between atoms: _194  and  _196
REMARK   82  A    between atoms: _196  and  _197
REMARK   83  A    between atoms: _196  and  _199
REMARK   84  A    between atoms: _199  and  _200
REMARK   85  A    between atoms: _200  and  _201
REMARK   86  A    between atoms: _201  and  _202
REMARK   87  A    between atoms: _202  and  _203
REMARK   88  A    between atoms: _207  and  _209
REMARK   89  A    between atoms: _209  and  _210
REMARK   90  A    between atoms: _209  and  _212
REMARK   91  A    between atoms: _212  and  _213
REMARK   92  A    between atoms: _213  and  _214
REMARK   93  A    between atoms: _214  and  _215
REMARK   94  A    between atoms: _224  and  _226
REMARK   95  A    between atoms: _226  and  _227
REMARK   96  A    between atoms: _226  and  _229
REMARK   97  A    between atoms: _229  and  _230
REMARK   98  A    between atoms: _232  and  _234
REMARK   99  A    between atoms: _234  and  _235
REMARK  100  A    between atoms: _234  and  _237
REMARK  101  A    between atoms: _237  and  _238
REMARK  102  A    between atoms: _244  and  _246
REMARK  103  A    between atoms: _246  and  _247
REMARK  104  A    between atoms: _246  and  _249
REMARK  105  A    between atoms: _249  and  _250
REMARK  106  A    between atoms: _255  and  _256
REMARK  107  A    between atoms: _258  and  _260
REMARK  108  A    between atoms: _260  and  _261
REMARK  109  A    between atoms: _260  and  _263
REMARK  110  A    between atoms: _263  and  _264
REMARK  111  A    between atoms: _264  and  _265
REMARK  112  A    between atoms: _265  and  _266
REMARK  113  A    between atoms: _275  and  _277
REMARK  114  A    between atoms: _277  and  _278
REMARK  115  A    between atoms: _277  and  _280
REMARK  116  A    between atoms: _280  and  _281
REMARK  117  A    between atoms: _283  and  _285
REMARK  118  A    between atoms: _285  and  _286
REMARK  119  A    between atoms: _285  and  _288
REMARK  120  A    between atoms: _288  and  _289
REMARK  121  A    between atoms: _292  and  _294
REMARK  122  A    between atoms: _294  and  _295
REMARK  123  A    between atoms: _294  and  _297
REMARK  124  A    between atoms: _297  and  _298
REMARK  125  A    between atoms: _301  and  _303
REMARK  126  A    between atoms: _303  and  _304
REMARK  127  A    between atoms: _303  and  _306
REMARK  128  A    between atoms: _306  and  _307
REMARK  129  A    between atoms: _307  and  _308
REMARK  130  A    between atoms: _310  and  _312
REMARK  131  A    between atoms: _312  and  _313
REMARK  132  A    between atoms: _312  and  _315
REMARK  133  A    between atoms: _318  and  _320
REMARK  134  A    between atoms: _320  and  _321
REMARK  135  A    between atoms: _320  and  _323
REMARK  136  A    between atoms: _323  and  _324
REMARK  137  A    between atoms: _324  and  _325
REMARK  138  A    between atoms: _328  and  _330
REMARK  139  A    between atoms: _330  and  _331
REMARK  140  A    between atoms: _330  and  _333
REMARK  141  A    between atoms: _333  and  _334
REMARK  142  A    between atoms: _334  and  _335
REMARK  143  A    between atoms: _335  and  _336
REMARK  144  A    between atoms: _336  and  _337
REMARK  145  A    between atoms: _341  and  _343
REMARK  146  A    between atoms: _343  and  _344
REMARK  147  A    between atoms: _343  and  _346
REMARK  148  A    between atoms: _346  and  _347
REMARK  149  A    between atoms: _347  and  _348
REMARK  150  A    between atoms: _348  and  _349
REMARK  151  A    between atoms: _349  and  _350
REMARK  152  A    between atoms: _354  and  _356
REMARK  153  A    between atoms: _356  and  _357
REMARK  154  A    between atoms: _356  and  _359
REMARK  155  A    between atoms: _359  and  _360
REMARK  156  A    between atoms: _366  and  _368
REMARK  157  A    between atoms: _368  and  _369
REMARK  158  A    between atoms: _368  and  _371
REMARK  159  A    between atoms: _371  and  _372
REMARK  160  A    between atoms: _374  and  _376
REMARK  161  A    between atoms: _376  and  _377
REMARK  162  A    between atoms: _376  and  _379
REMARK  163  A    between atoms: _379  and  _380
REMARK  164  A    between atoms: _380  and  _381
REMARK  165  A    between atoms: _381  and  _382
REMARK  166  A    between atoms: _382  and  _383
REMARK  167  A    between atoms: _387  and  _389
REMARK  168  A    between atoms: _389  and  _390
REMARK  169  A    between atoms: _389  and  _392
REMARK  170  A    between atoms: _392  and  _393
REMARK  171  A    between atoms: _399  and  _401
REMARK  172  A    between atoms: _401  and  _402
REMARK  173  A    between atoms: _401  and  _404
REMARK  174  A    between atoms: _404  and  _405
REMARK  175  A    between atoms: _408  and  _410
REMARK  176  A    between atoms: _410  and  _411
REMARK  177  A    between atoms: _410  and  _413
REMARK  178  A    between atoms: _413  and  _414
REMARK  179  A    between atoms: _419  and  _421
REMARK  180  A    between atoms: _421  and  _422
REMARK  181  A    between atoms: _424  and  _426
REMARK  182  A    between atoms: _426  and  _427
REMARK  183  A    between atoms: _426  and  _429
REMARK  184  A    between atoms: _429  and  _430
REMARK                            x       y       z     vdW  Elec       q    Type
REMARK                         _______ _______ _______ _____ _____    ______ ____
ROOT
ATOM      1  NE  ARG A   1      10.115  12.096  19.902  0.00  0.00    -0.265 N 
ATOM      2  HE  ARG A   1       9.805  11.115  20.051  0.00  0.00    +0.259 HD
ATOM      3  CZ  ARG A   1      10.990  12.320  18.931  0.00  0.00    +0.342 C 
ATOM      4  NH2 ARG A   1      11.451  13.551  18.710  0.00  0.00    -0.292 N 
ATOM      5 HH21 ARG A   1      11.125  14.342  19.301  0.00  0.00    +0.255 HD
ATOM      6 HH22 ARG A   1      12.137  13.720  17.947  0.00  0.00    +0.255 HD
ATOM      7  NH1 ARG A   1      11.416  11.301  18.194  0.00  0.00    -0.292 N 
ATOM      8 HH11 ARG A   1      11.064  10.341  18.381  0.00  0.00    +0.255 HD
ATOM      9 HH12 ARG A   1      12.102  11.463  17.429  0.00  0.00    +0.255 HD
ENDROOT
BRANCH   1  10
ATOM     10  CD  ARG A   1       9.552  13.122  20.779  0.00  0.00    +0.174 C 
BRANCH  10  11
ATOM     11  CG  ARG A   1       8.791  12.483  21.921  0.00  0.00    +0.045 C 
BRANCH  11  12
ATOM     12  CB  ARG A   1       8.261  13.523  22.897  0.00  0.00    +0.029 C 
BRANCH  12  13
ATOM     13  CA  ARG A   1       7.972  12.948  24.286  0.00  0.00    +0.133 C 
BRANCH  13  14
ATOM     14  N   ARG A   1       9.201  12.796  25.052  0.00  0.00    -0.239 NA
ATOM     15  H   ARG A   1       9.738  11.908  24.979  0.00  0.00    +0.142 HD
ENDBRANCH  13  14
BRANCH  13  16
ATOM     16  C   ARG A   1       7.198  11.632  24.162  0.00  0.00    +0.224 C 
ATOM     17  O   ARG A   1       7.774  10.532  24.183  0.00  0.00    -0.287 OA
ENDBRANCH  13  16
ENDBRANCH  12  13
ENDBRANCH  11  12
ENDBRANCH  10  11
ENDBRANCH   1  10
TORSDOF 6
REMARK  Name = ../refined-set-2016/3g3r/3g3r_pocket.pdb
REMARK  184 active torsions:
REMARK  status: ('A' for Active; 'I' for Inactive)
REMARK    1  A    between atoms: _1  and  _3
REMARK    2  A    between atoms: _3  and  _4
REMARK    3  A    between atoms: _3  and  _6
REMARK    4  A    between atoms: _6  and  _7
REMARK    5  A    between atoms: _10  and  _12
REMARK    6  A    between atoms: _12  and  _13
REMARK    7  A    between atoms: _12  and  _15
REMARK    8  A    between atoms: _15  and  _16
REMARK    9  A    between atoms: _16  and  _17
REMARK   10  A    between atoms: _17  and  _18
REMARK   11  A    between atoms: _18  and  _19
REMARK   12  A    between atoms: _23  and  _25
REMARK   13  A    between atoms: _25  and  _26
REMARK   14  A    between atoms: _25  and  _28
REMARK   15  A    between atoms: _28  and  _29
REMARK   16  A    between atoms: _39  and  _41
REMARK   17  A    between atoms: _41  and  _42
REMARK   18  A    between atoms: _41  and  _44
REMARK   19  A    between atoms: _44  and  _45
REMARK   20  A    between atoms: _48  and  _50
REMARK   21  A    between atoms: _50  and  _51
REMARK   22  A    between atoms: _50  and  _53
REMARK   23  A    between atoms: _53  and  _54
REMARK   24  A    between atoms: _57  and  _59
REMARK   25  A    between atoms: _59  and  _60
REMARK   26  A    between atoms: _59  and  _62
REMARK   27  A    between atoms: _62  and  _63
REMARK   28  A    between atoms: _65  and  _67
REMARK   29  A    between atoms: _67  and  _68
REMARK   30  A    between atoms: _67  and  _70
REMARK   31  A    between atoms: _70  and  _71
REMARK   32  A    between atoms: _76  and  _77
REMARK   33  A    between atoms: _79  and  _81
REMARK   34  A    between atoms: _81  and  _82
REMARK   35  A    between atoms: _81  and  _84
REMARK   36  A    between atoms: _84  and  _85
REMARK   37  A    between atoms: _85  and  _86
REMARK   38  A    between atoms: _86  and  _87
REMARK   39  A    between atoms: _96  and  _98
REMARK   40  A    between atoms: _98  and  _99
REMARK   41  A    between atoms: _98  and  _101
REMARK   42  A    between atoms: _101  and  _102
REMARK   43  A    between atoms: _102  and  _103
REMARK   44  A    between atoms: _103  and  _104
REMARK   45  A    between atoms: _104  and  _105
REMARK   46  A    between atoms: _109  and  _111
REMARK   47  A    between atoms: _111  and  _112
REMARK   48  A    between atoms: _115  and  _117
REMARK   49  A    between atoms: _117  and  _118
REMARK   50  A    between atoms: _117  and  _120
REMARK   51  A    between atoms: _120  and  _121
REMARK   52  A    between atoms: _121  and  _122
REMARK   53  A    between atoms: _122  and  _123
REMARK   54  A    between atoms: _132  and  _134
REMARK   55  A    between atoms: _134  and  _135
REMARK   56  A    between atoms: _134  and  _137
REMARK   57  A    between atoms: _137  and  _138
REMARK   58  A    between atoms: _138  and  _139
REMARK   59  A    between atoms: _139  and  _140
REMARK   60  A    between atoms: _149  and  _151
REMARK   61  A    between atoms: _151  and  _152
REMARK   62  A    between atoms: _151  and  _154
REMARK   63  A    between atoms: _154  and  _155
REMARK   64  A    between atoms: _160  and  _161
REMARK   65  A    between atoms: _163  and  _165
REMARK   66  A    between atoms: _165  and  _166
REMARK   67  A    between atoms: _165  and  _168
REMARK   68  A    between atoms: _168  and  _169
REMARK   69  A    between atoms: _169  and  _170
REMARK   70  A    between atoms: _173  and  _175
REMARK   71  A    between atoms: _175  and  _176
REMARK   72  A    between atoms: _175  and  _178
REMARK   73  A    between atoms: _178  and  _179
REMARK   74  A    between atoms: _179  and  _180
REMARK   75  A    between atoms: _180  and  _181
REMARK   76  A    between atoms: _181  and  _182
REMARK   77  A    between atoms: _186  and  _188
REMARK   78  A    between atoms: _188  and  _189
REMARK   79  A    between atoms: _188  and  _191
REMARK   80  A    between atoms: _191  and  _192
REMARK   81  A    between atoms: _194  and  _196
REMARK   82  A    between atoms: _196  and  _197
REMARK   83  A    between atoms: _196  and  _199
REMARK   84  A    between atoms: _199  and  _200
REMARK   85  A    between atoms: _200  and  _201
REMARK   86  A    between atoms: _201  and  _202
REMARK   87  A    between atoms: _202  and  _203
REMARK   88  A    between atoms: _207  and  _209
REMARK   89  A    between atoms: _209  and  _210
REMARK   90  A    between atoms: _209  and  _212
REMARK   91  A    between atoms: _212  and  _213
REMARK   92  A    between atoms: _213  and  _214
REMARK   93  A    between atoms: _214  and  _215
REMARK   94  A    between atoms: _224  and  _226
REMARK   95  A    between atoms: _226  and  _227
REMARK   96  A    between atoms: _226  and  _229
REMARK   97  A    between atoms: _229  and  _230
REMARK   98  A    between atoms: _232  and  _234
REMARK   99  A    between atoms: _234  and  _235
REMARK  100  A    between atoms: _234  and  _237
REMARK  101  A    between atoms: _237  and  _238
REMARK  102  A    between atoms: _244  and  _246
REMARK  103  A    between atoms: _246  and  _247
REMARK  104  A    between atoms: _246  and  _249
REMARK  105  A    between atoms: _249  and  _250
REMARK  106  A    between atoms: _255  and  _256
REMARK  107  A    between atoms: _258  and  _260
REMARK  108  A    between atoms: _260  and  _261
REMARK  109  A    between atoms: _260  and  _263
REMARK  110  A    between atoms: _263  and  _264
REMARK  111  A    between atoms: _264  and  _265
REMARK  112  A    between atoms: _265  and  _266
REMARK  113  A    between atoms: _275  and  _277
REMARK  114  A    between atoms: _277  and  _278
REMARK  115  A    between atoms: _277  and  _280
REMARK  116  A    between atoms: _280  and  _281
REMARK  117  A    between atoms: _283  and  _285
REMARK  118  A    between atoms: _285  and  _286
REMARK  119  A    between atoms: _285  and  _288
REMARK  120  A    between atoms: _288  and  _289
REMARK  121  A    between atoms: _292  and  _294
REMARK  122  A    between atoms: _294  and  _295
REMARK  123  A    between atoms: _294  and  _297
REMARK  124  A    between atoms: _297  and  _298
REMARK  125  A    between atoms: _301  and  _303
REMARK  126  A    between atoms: _303  and  _304
REMARK  127  A    between atoms: _303  and  _306
REMARK  128  A    between atoms: _306  and  _307
REMARK  129  A    between atoms: _307  and  _308
REMARK  130  A    between atoms: _310  and  _312
REMARK  131  A    between atoms: _312  and  _313
REMARK  132  A    between atoms: _312  and  _315
REMARK  133  A    between atoms: _318  and  _320
REMARK  134  A    between atoms: _320  and  _321
REMARK  135  A    between atoms: _320  and  _323
REMARK  136  A    between atoms: _323  and  _324
REMARK  137  A    between atoms: _324  and  _325
REMARK  138  A    between atoms: _328  and  _330
REMARK  139  A    between atoms: _330  and  _331
REMARK  140  A    between atoms: _330  and  _333
REMARK  141  A    between atoms: _333  and  _334
REMARK  142  A    between atoms: _334  and  _335
REMARK  143  A    between atoms: _335  and  _336
REMARK  144  A    between atoms: _336  and  _337
REMARK  145  A    between atoms: _341  and  _343
REMARK  146  A    between atoms: _343  and  _344
REMARK  147  A    between atoms: _343  and  _346
REMARK  148  A    between atoms: _346  and  _347
REMARK  149  A    between atoms: _347  and  _348
REMARK  150  A    between atoms: _348  and  _349
REMARK  151  A    between atoms: _349  and  _350
REMARK  152  A    between atoms: _354  and  _356
REMARK  153  A    between atoms: _356  and  _357
REMARK  154  A    between atoms: _356  and  _359
REMARK  155  A    between atoms: _359  and  _360
REMARK  156  A    between atoms: _366  and  _368
REMARK  157  A    between atoms: _368  and  _369
REMARK  158  A    between atoms: _368  and  _371
REMARK  159  A    between atoms: _371  and  _372
REMARK  160  A    between atoms: _374  and  _376
REMARK  161  A    between atoms: _376  and  _377
REMARK  162  A    between atoms: _376  and  _379
REMARK  163  A    between atoms: _379  and  _380
REMARK  164  A    between atoms: _380  and  _381
REMARK  165  A    between atoms: _381  and  _382
REMARK  166  A    between atoms: _382  and  _383
REMARK  167  A    between atoms: _387  and  _389
REMARK  168  A    between atoms: _389  and  _390
REMARK  169  A    between atoms: _389  and  _392
REMARK  170  A    between atoms: _392  and  _393
REMARK  171  A    between atoms: _399  and  _401
REMARK  172  A    between atoms: _401  and  _402
REMARK  173  A    between atoms: _401  and  _404
REMARK  174  A    between atoms: _404  and  _405
REMARK  175  A    between atoms: _408  and  _410
REMARK  176  A    between atoms: _410  and  _411
REMARK  177  A    between atoms: _410  and  _413
REMARK  178  A    between atoms: _413  and  _414
REMARK  179  A    between atoms: _419  and  _421
REMARK  180  A    between atoms: _421  and  _422
REMARK  181  A    between atoms: _424  and  _426
REMARK  182  A    between atoms: _426  and  _427
REMARK  183  A    between atoms: _426  and  _429
REMARK  184  A    between atoms: _429  and  _430
REMARK                            x       y       z     vdW  Elec       q    Type
REMARK                         _______ _______ _______ _____ _____    ______ ____
ROOT
ATOM      1  NE  ARG A   1       7.467  10.993  17.187  0.00  0.00    -0.265 N 
ATOM      2  HE  ARG A   1       6.909  11.700  17.706  0.00  0.00    +0.259 HD
ATOM      3  CZ  ARG A   1       8.493  11.426  16.470  0.00  0.00    +0.342 C 
ATOM      4  NH2 ARG A   1       8.760  12.730  16.434  0.00  0.00    -0.292 N 
ATOM      5 HH21 ARG A   1       8.165  13.397  16.966  0.00  0.00    +0.255 HD
ATOM      6 HH22 ARG A   1       9.563  13.081  15.874  0.00  0.00    +0.255 HD
ATOM      7  NH1 ARG A   1       9.261  10.563  15.810  0.00  0.00    -0.292 N 
ATOM      8 HH11 ARG A   1       9.057   9.544  15.856  0.00  0.00    +0.255 HD
ATOM      9 HH12 ARG A   1      10.066  10.907  15.248  0.00  0.00    +0.255 HD
ENDROOT
BRANCH   1  10
ATOM     10  CD  ARG A   1       7.065   9.601  17.301  0.00  0.00    +0.174 C 
BRANCH  10  11
ATOM     11  CG  ARG A   1       5.725   9.510  18.003  0.00  0.00    +0.045 C 
BRANCH  11  12
ATOM     12  CB  ARG A   1       5.833   9.825  19.490  0.00  0.00    +0.029 C 
BRANCH  12  13
ATOM     13  CA  ARG A   1       4.477   9.895  20.236  0.00  0.00    +0.133 C 
BRANCH  13  14
ATOM     14  N   ARG A   1       4.714   9.752  21.653  0.00  0.00    -0.239 NA
ATOM     15  H   ARG A   1       5.097   8.860  22.027  0.00  0.00    +0.142 HD
ENDBRANCH  13  14
BRANCH  13  16
ATOM     16  C   ARG A   1       3.522   8.783  19.773  0.00  0.00    +0.224 C 
ATOM     17  O   ARG A   1       3.518   7.716  20.351  0.00  0.00    -0.287 OA
ENDBRANCH  13  16
ENDBRANCH  12  13
ENDBRANCH  11  12
ENDBRANCH  10  11
ENDBRANCH   1  10
TORSDOF 6
REMARK  Name = ../refined-set-2016/3g3r/3g3r_pocket.pdb
REMARK  184 active torsions:
REMARK  status: ('A' for Active; 'I' for Inactive)
REMARK    1  A    between atoms: _1  and  _3
REMARK    2  A    between atoms: _3  and  _4
REMARK    3  A    between atoms: _3  and  _6
REMARK    4  A    between atoms: _6  and  _7
REMARK    5  A    between atoms: _10  and  _12
REMARK    6  A    between atoms: _12  and  _13
REMARK    7  A    between atoms: _12  and  _15
REMARK    8  A    between atoms: _15  and  _16
REMARK    9  A    between atoms: _16  and  _17
REMARK   10  A    between atoms: _17  and  _18
REMARK   11  A    between atoms: _18  and  _19
REMARK   12  A    between atoms: _23  and  _25
REMARK   13  A    between atoms: _25  and  _26
REMARK   14  A    between atoms: _25  and  _28
REMARK   15  A    between atoms: _28  and  _29
REMARK   16  A    between atoms: _39  and  _41
REMARK   17  A    between atoms: _41  and  _42
REMARK   18  A    between atoms: _41  and  _44
REMARK   19  A    between atoms: _44  and  _45
REMARK   20  A    between atoms: _48  and  _50
REMARK   21  A    between atoms: _50  and  _51
REMARK   22  A    between atoms: _50  and  _53
REMARK   23  A    between atoms: _53  and  _54
REMARK   24  A    between atoms: _57  and  _59
REMARK   25  A    between atoms: _59  and  _60
REMARK   26  A    between atoms: _59  and  _62
REMARK   27  A    between atoms: _62  and  _63
REMARK   28  A    between atoms: _65  and  _67
REMARK   29  A    between atoms: _67  and  _68
REMARK   30  A    between atoms: _67  and  _70
REMARK   31  A    between atoms: _70  and  _71
REMARK   32  A    between atoms: _76  and  _77
REMARK   33  A    between atoms: _79  and  _81
REMARK   34  A    between atoms: _81  and  _82
REMARK   35  A    between atoms: _81  and  _84
REMARK   36  A    between atoms: _84  and  _85
REMARK   37  A    between atoms: _85  and  _86
REMARK   38  A    between atoms: _86  and  _87
REMARK   39  A    between atoms: _96  and  _98
REMARK   40  A    between atoms: _98  and  _99
REMARK   41  A    between atoms: _98  and  _101
REMARK   42  A    between atoms: _101  and  _102
REMARK   43  A    between atoms: _102  and  _103
REMARK   44  A    between atoms: _103  and  _104
REMARK   45  A    between atoms: _104  and  _105
REMARK   46  A    between atoms: _109  and  _111
REMARK   47  A    between atoms: _111  and  _112
REMARK   48  A    between atoms: _115  and  _117
REMARK   49  A    between atoms: _117  and  _118
REMARK   50  A    between atoms: _117  and  _120
REMARK   51  A    between atoms: _120  and  _121
REMARK   52  A    between atoms: _121  and  _122
REMARK   53  A    between atoms: _122  and  _123
REMARK   54  A    between atoms: _132  and  _134
REMARK   55  A    between atoms: _134  and  _135
REMARK   56  A    between atoms: _134  and  _137
REMARK   57  A    between atoms: _137  and  _138
REMARK   58  A    between atoms: _138  and  _139
REMARK   59  A    between atoms: _139  and  _140
REMARK   60  A    between atoms: _149  and  _151
REMARK   61  A    between atoms: _151  and  _152
REMARK   62  A    between atoms: _151  and  _154
REMARK   63  A    between atoms: _154  and  _155
REMARK   64  A    between atoms: _160  and  _161
REMARK   65  A    between atoms: _163  and  _165
REMARK   66  A    between atoms: _165  and  _166
REMARK   67  A    between atoms: _165  and  _168
REMARK   68  A    between atoms: _168  and  _169
REMARK   69  A    between atoms: _169  and  _170
REMARK   70  A    between atoms: _173  and  _175
REMARK   71  A    between atoms: _175  and  _176
REMARK   72  A    between atoms: _175  and  _178
REMARK   73  A    between atoms: _178  and  _179
REMARK   74  A    between atoms: _179  and  _180
REMARK   75  A    between atoms: _180  and  _181
REMARK   76  A    between atoms: _181  and  _182
REMARK   77  A    between atoms: _186  and  _188
REMARK   78  A    between atoms: _188  and  _189
REMARK   79  A    between atoms: _188  and  _191
REMARK   80  A    between atoms: _191  and  _192
REMARK   81  A    between atoms: _194  and  _196
REMARK   82  A    between atoms: _196  and  _197
REMARK   83  A    between atoms: _196  and  _199
REMARK   84  A    between atoms: _199  and  _200
REMARK   85  A    between atoms: _200  and  _201
REMARK   86  A    between atoms: _201  and  _202
REMARK   87  A    between atoms: _202  and  _203
REMARK   88  A    between atoms: _207  and  _209
REMARK   89  A    between atoms: _209  and  _210
REMARK   90  A    between atoms: _209  and  _212
REMARK   91  A    between atoms: _212  and  _213
REMARK   92  A    between atoms: _213  and  _214
REMARK   93  A    between atoms: _214  and  _215
REMARK   94  A    between atoms: _224  and  _226
REMARK   95  A    between atoms: _226  and  _227
REMARK   96  A    between atoms: _226  and  _229
REMARK   97  A    between atoms: _229  and  _230
REMARK   98  A    between atoms: _232  and  _234
REMARK   99  A    between atoms: _234  and  _235
REMARK  100  A    between atoms: _234  and  _237
REMARK  101  A    between atoms: _237  and  _238
REMARK  102  A    between atoms: _244  and  _246
REMARK  103  A    between atoms: _246  and  _247
REMARK  104  A    between atoms: _246  and  _249
REMARK  105  A    between atoms: _249  and  _250
REMARK  106  A    between atoms: _255  and  _256
REMARK  107  A    between atoms: _258  and  _260
REMARK  108  A    between atoms: _260  and  _261
REMARK  109  A    between atoms: _260  and  _263
REMARK  110  A    between atoms: _263  and  _264
REMARK  111  A    between atoms: _264  and  _265
REMARK  112  A    between atoms: _265  and  _266
REMARK  113  A    between atoms: _275  and  _277
REMARK  114  A    between atoms: _277  and  _278
REMARK  115  A    between atoms: _277  and  _280
REMARK  116  A    between atoms: _280  and  _281
REMARK  117  A    between atoms: _283  and  _285
REMARK  118  A    between atoms: _285  and  _286
REMARK  119  A    between atoms: _285  and  _288
REMARK  120  A    between atoms: _288  and  _289
REMARK  121  A    between atoms: _292  and  _294
REMARK  122  A    between atoms: _294  and  _295
REMARK  123  A    between atoms: _294  and  _297
REMARK  124  A    between atoms: _297  and  _298
REMARK  125  A    between atoms: _301  and  _303
REMARK  126  A    between atoms: _303  and  _304
REMARK  127  A    between atoms: _303  and  _306
REMARK  128  A    between atoms: _306  and  _307
REMARK  129  A    between atoms: _307  and  _308
REMARK  130  A    between atoms: _310  and  _312
REMARK  131  A    between atoms: _312  and  _313
REMARK  132  A    between atoms: _312  and  _315
REMARK  133  A    between atoms: _318  and  _320
REMARK  134  A    between atoms: _320  and  _321
REMARK  135  A    between atoms: _320  and  _323
REMARK  136  A    between atoms: _323  and  _324
REMARK  137  A    between atoms: _324  and  _325
REMARK  138  A    between atoms: _328  and  _330
REMARK  139  A    between atoms: _330  and  _331
REMARK  140  A    between atoms: _330  and  _333
REMARK  141  A    between atoms: _333  and  _334
REMARK  142  A    between atoms: _334  and  _335
REMARK  143  A    between atoms: _335  and  _336
REMARK  144  A    between atoms: _336  and  _337
REMARK  145  A    between atoms: _341  and  _343
REMARK  146  A    between atoms: _343  and  _344
REMARK  147  A    between atoms: _343  and  _346
REMARK  148  A    between atoms: _346  and  _347
REMARK  149  A    between atoms: _347  and  _348
REMARK  150  A    between atoms: _348  and  _349
REMARK  151  A    between atoms: _349  and  _350
REMARK  152  A    between atoms: _354  and  _356
REMARK  153  A    between atoms: _356  and  _357
REMARK  154  A    between atoms: _356  and  _359
REMARK  155  A    between atoms: _359  and  _360
REMARK  156  A    between atoms: _366  and  _368
REMARK  157  A    between atoms: _368  and  _369
REMARK  158  A    between atoms: _368  and  _371
REMARK  159  A    between atoms: _371  and  _372
REMARK  160  A    between atoms: _374  and  _376
REMARK  161  A    between atoms: _376  and  _377
REMARK  162  A    between atoms: _376  and  _379
REMARK  163  A    between atoms: _379  and  _380
REMARK  164  A    between atoms: _380  and  _381
REMARK  165  A    between atoms: _381  and  _382
REMARK  166  A    between atoms: _382  and  _383
REMARK  167  A    between atoms: _387  and  _389
REMARK  168  A    between atoms: _389  and  _390
REMARK  169  A    between atoms: _389  and  _392
REMARK  170  A    between atoms: _392  and  _393
REMARK  171  A    between atoms: _399  and  _401
REMARK  172  A    between atoms: _401  and  _402
REMARK  173  A    between atoms: _401  and  _404
REMARK  174  A    between atoms: _404  and  _405
REMARK  175  A    between atoms: _408  and  _410
REMARK  176  A    between atoms: _410  and  _411
REMARK  177  A    between atoms: _410  and  _413
REMARK  178  A    between atoms: _413  and  _414
REMARK  179  A    between atoms: _419  and  _421
REMARK  180  A    between atoms: _421  and  _422
REMARK  181  A    between atoms: _424  and  _426
REMARK  182  A    between atoms: _426  and  _427
REMARK  183  A    between atoms: _426  and  _429
REMARK  184  A    between atoms: _429  and  _430
REMARK                            x       y       z     vdW  Elec       q    Type
REMARK                         _______ _______ _______ _____ _____    ______ ____
ROOT
ATOM      1  CG  TYR A   1       4.073   6.464  14.125  0.00  0.00    -0.020 A 
ATOM      2  CD2 TYR A   1       4.514   6.041  15.371  0.00  0.00    -0.001 A 
ATOM      3  CE2 TYR A   1       5.830   6.167  15.739  0.00  0.00    +0.036 A 
ATOM      4  CZ  TYR A   1       6.740   6.717  14.858  0.00  0.00    +0.134 A 
ATOM      5  CE1 TYR A   1       6.333   7.143  13.612  0.00  0.00    +0.036 A 
ATOM      6  CD1 TYR A   1       5.004   7.018  13.255  0.00  0.00    -0.001 A 
ENDROOT
BRANCH   4   7
ATOM      7  OH  TYR A   1       8.059   6.845  15.236  0.00  0.00    -0.506 OA
ATOM      8  HH  TYR A   1       8.117   7.422  16.038  0.00  0.00    +0.292 HD
ENDBRANCH   4   7
BRANCH   1   9
ATOM      9  CB  TYR A   1       2.621   6.331  13.727  0.00  0.00    +0.051 C 
BRANCH   9  10
ATOM     10  CA  TYR A   1       1.693   7.416  14.311  0.00  0.00    +0.137 C 
BRANCH  10  11
ATOM     11  N   TYR A   1       1.696   7.343  15.768  0.00  0.00    -0.239 NA
ATOM     12  H   TYR A   1       1.549   6.413  16.209  0.00  0.00    +0.142 HD
ENDBRANCH  10  11
BRANCH  10  13
ATOM     13  C   TYR A   1       0.273   7.172  13.808  0.00  0.00    +0.224 C 
ATOM     14  O   TYR A   1      -0.444   6.309  14.333  0.00  0.00    -0.287 OA
ENDBRANCH  10  13
ENDBRANCH   9  10
ENDBRANCH   1   9
TORSDOF 5
REMARK  Name = ../refined-set-2016/3g3r/3g3r_pocket.pdb
REMARK  184 active torsions:
REMARK  status: ('A' for Active; 'I' for Inactive)
REMARK    1  A    between atoms: _1  and  _3
REMARK    2  A    between atoms: _3  and  _4
REMARK    3  A    between atoms: _3  and  _6
REMARK    4  A    between atoms: _6  and  _7
REMARK    5  A    between atoms: _10  and  _12
REMARK    6  A    between atoms: _12  and  _13
REMARK    7  A    between atoms: _12  and  _15
REMARK    8  A    between atoms: _15  and  _16
REMARK    9  A    between atoms: _16  and  _17
REMARK   10  A    between atoms: _17  and  _18
REMARK   11  A    between atoms: _18  and  _19
REMARK   12  A    between atoms: _23  and  _25
REMARK   13  A    between atoms: _25  and  _26
REMARK   14  A    between atoms: _25  and  _28
REMARK   15  A    between atoms: _28  and  _29
REMARK   16  A    between atoms: _39  and  _41
REMARK   17  A    between atoms: _41  and  _42
REMARK   18  A    between atoms: _41  and  _44
REMARK   19  A    between atoms: _44  and  _45
REMARK   20  A    between atoms: _48  and  _50
REMARK   21  A    between atoms: _50  and  _51
REMARK   22  A    between atoms: _50  and  _53
REMARK   23  A    between atoms: _53  and  _54
REMARK   24  A    between atoms: _57  and  _59
REMARK   25  A    between atoms: _59  and  _60
REMARK   26  A    between atoms: _59  and  _62
REMARK   27  A    between atoms: _62  and  _63
REMARK   28  A    between atoms: _65  and  _67
REMARK   29  A    between atoms: _67  and  _68
REMARK   30  A    between atoms: _67  and  _70
REMARK   31  A    between atoms: _70  and  _71
REMARK   32  A    between atoms: _76  and  _77
REMARK   33  A    between atoms: _79  and  _81
REMARK   34  A    between atoms: _81  and  _82
REMARK   35  A    between atoms: _81  and  _84
REMARK   36  A    between atoms: _84  and  _85
REMARK   37  A    between atoms: _85  and  _86
REMARK   38  A    between atoms: _86  and  _87
REMARK   39  A    between atoms: _96  and  _98
REMARK   40  A    between atoms: _98  and  _99
REMARK   41  A    between atoms: _98  and  _101
REMARK   42  A    between atoms: _101  and  _102
REMARK   43  A    between atoms: _102  and  _103
REMARK   44  A    between atoms: _103  and  _104
REMARK   45  A    between atoms: _104  and  _105
REMARK   46  A    between atoms: _109  and  _111
REMARK   47  A    between atoms: _111  and  _112
REMARK   48  A    between atoms: _115  and  _117
REMARK   49  A    between atoms: _117  and  _118
REMARK   50  A    between atoms: _117  and  _120
REMARK   51  A    between atoms: _120  and  _121
REMARK   52  A    between atoms: _121  and  _122
REMARK   53  A    between atoms: _122  and  _123
REMARK   54  A    between atoms: _132  and  _134
REMARK   55  A    between atoms: _134  and  _135
REMARK   56  A    between atoms: _134  and  _137
REMARK   57  A    between atoms: _137  and  _138
REMARK   58  A    between atoms: _138  and  _139
REMARK   59  A    between atoms: _139  and  _140
REMARK   60  A    between atoms: _149  and  _151
REMARK   61  A    between atoms: _151  and  _152
REMARK   62  A    between atoms: _151  and  _154
REMARK   63  A    between atoms: _154  and  _155
REMARK   64  A    between atoms: _160  and  _161
REMARK   65  A    between atoms: _163  and  _165
REMARK   66  A    between atoms: _165  and  _166
REMARK   67  A    between atoms: _165  and  _168
REMARK   68  A    between atoms: _168  and  _169
REMARK   69  A    between atoms: _169  and  _170
REMARK   70  A    between atoms: _173  and  _175
REMARK   71  A    between atoms: _175  and  _176
REMARK   72  A    between atoms: _175  and  _178
REMARK   73  A    between atoms: _178  and  _179
REMARK   74  A    between atoms: _179  and  _180
REMARK   75  A    between atoms: _180  and  _181
REMARK   76  A    between atoms: _181  and  _182
REMARK   77  A    between atoms: _186  and  _188
REMARK   78  A    between atoms: _188  and  _189
REMARK   79  A    between atoms: _188  and  _191
REMARK   80  A    between atoms: _191  and  _192
REMARK   81  A    between atoms: _194  and  _196
REMARK   82  A    between atoms: _196  and  _197
REMARK   83  A    between atoms: _196  and  _199
REMARK   84  A    between atoms: _199  and  _200
REMARK   85  A    between atoms: _200  and  _201
REMARK   86  A    between atoms: _201  and  _202
REMARK   87  A    between atoms: _202  and  _203
REMARK   88  A    between atoms: _207  and  _209
REMARK   89  A    between atoms: _209  and  _210
REMARK   90  A    between atoms: _209  and  _212
REMARK   91  A    between atoms: _212  and  _213
REMARK   92  A    between atoms: _213  and  _214
REMARK   93  A    between atoms: _214  and  _215
REMARK   94  A    between atoms: _224  and  _226
REMARK   95  A    between atoms: _226  and  _227
REMARK   96  A    between atoms: _226  and  _229
REMARK   97  A    between atoms: _229  and  _230
REMARK   98  A    between atoms: _232  and  _234
REMARK   99  A    between atoms: _234  and  _235
REMARK  100  A    between atoms: _234  and  _237
REMARK  101  A    between atoms: _237  and  _238
REMARK  102  A    between atoms: _244  and  _246
REMARK  103  A    between atoms: _246  and  _247
REMARK  104  A    between atoms: _246  and  _249
REMARK  105  A    between atoms: _249  and  _250
REMARK  106  A    between atoms: _255  and  _256
REMARK  107  A    between atoms: _258  and  _260
REMARK  108  A    between atoms: _260  and  _261
REMARK  109  A    between atoms: _260  and  _263
REMARK  110  A    between atoms: _263  and  _264
REMARK  111  A    between atoms: _264  and  _265
REMARK  112  A    between atoms: _265  and  _266
REMARK  113  A    between atoms: _275  and  _277
REMARK  114  A    between atoms: _277  and  _278
REMARK  115  A    between atoms: _277  and  _280
REMARK  116  A    between atoms: _280  and  _281
REMARK  117  A    between atoms: _283  and  _285
REMARK  118  A    between atoms: _285  and  _286
REMARK  119  A    between atoms: _285  and  _288
REMARK  120  A    between atoms: _288  and  _289
REMARK  121  A    between atoms: _292  and  _294
REMARK  122  A    between atoms: _294  and  _295
REMARK  123  A    between atoms: _294  and  _297
REMARK  124  A    between atoms: _297  and  _298
REMARK  125  A    between atoms: _301  and  _303
REMARK  126  A    between atoms: _303  and  _304
REMARK  127  A    between atoms: _303  and  _306
REMARK  128  A    between atoms: _306  and  _307
REMARK  129  A    between atoms: _307  and  _308
REMARK  130  A    between atoms: _310  and  _312
REMARK  131  A    between atoms: _312  and  _313
REMARK  132  A    between atoms: _312  and  _315
REMARK  133  A    between atoms: _318  and  _320
REMARK  134  A    between atoms: _320  and  _321
REMARK  135  A    between atoms: _320  and  _323
REMARK  136  A    between atoms: _323  and  _324
REMARK  137  A    between atoms: _324  and  _325
REMARK  138  A    between atoms: _328  and  _330
REMARK  139  A    between atoms: _330  and  _331
REMARK  140  A    between atoms: _330  and  _333
REMARK  141  A    between atoms: _333  and  _334
REMARK  142  A    between atoms: _334  and  _335
REMARK  143  A    between atoms: _335  and  _336
REMARK  144  A    between atoms: _336  and  _337
REMARK  145  A    between atoms: _341  and  _343
REMARK  146  A    between atoms: _343  and  _344
REMARK  147  A    between atoms: _343  and  _346
REMARK  148  A    between atoms: _346  and  _347
REMARK  149  A    between atoms: _347  and  _348
REMARK  150  A    between atoms: _348  and  _349
REMARK  151  A    between atoms: _349  and  _350
REMARK  152  A    between atoms: _354  and  _356
REMARK  153  A    between atoms: _356  and  _357
REMARK  154  A    between atoms: _356  and  _359
REMARK  155  A    between atoms: _359  and  _360
REMARK  156  A    between atoms: _366  and  _368
REMARK  157  A    between atoms: _368  and  _369
REMARK  158  A    between atoms: _368  and  _371
REMARK  159  A    between atoms: _371  and  _372
REMARK  160  A    between atoms: _374  and  _376
REMARK  161  A    between atoms: _376  and  _377
REMARK  162  A    between atoms: _376  and  _379
REMARK  163  A    between atoms: _379  and  _380
REMARK  164  A    between atoms: _380  and  _381
REMARK  165  A    between atoms: _381  and  _382
REMARK  166  A    between atoms: _382  and  _383
REMARK  167  A    between atoms: _387  and  _389
REMARK  168  A    between atoms: _389  and  _390
REMARK  169  A    between atoms: _389  and  _392
REMARK  170  A    between atoms: _392  and  _393
REMARK  171  A    between atoms: _399  and  _401
REMARK  172  A    between atoms: _401  and  _402
REMARK  173  A    between atoms: _401  and  _404
REMARK  174  A    between atoms: _404  and  _405
REMARK  175  A    between atoms: _408  and  _410
REMARK  176  A    between atoms: _410  and  _411
REMARK  177  A    between atoms: _410  and  _413
REMARK  178  A    between atoms: _413  and  _414
REMARK  179  A    between atoms: _419  and  _421
REMARK  180  A    between atoms: _421  and  _422
REMARK  181  A    between atoms: _424  and  _426
REMARK  182  A    between atoms: _426  and  _427
REMARK  183  A    between atoms: _426  and  _429
REMARK  184  A    between atoms: _429  and  _430
REMARK                            x       y       z     vdW  Elec       q    Type
REMARK                         _______ _______ _______ _____ _____    ______ ____
ROOT
ATOM      1  CA  GLU A   1      10.522   8.333  23.812  0.00  0.00    +0.134 C 
ENDROOT
BRANCH   1   2
ATOM      2  N   GLU A   1       9.203   8.165  24.426  0.00  0.00    -0.239 NA
ATOM      3  H   GLU A   1       8.559   8.978  24.495  0.00  0.00    +0.142 HD
ENDBRANCH   1   2
BRANCH   1   4
ATOM      4  C   GLU A   1      11.393   9.314  24.593  0.00  0.00    +0.224 C 
ATOM      5  O   GLU A   1      10.904  10.310  25.125  0.00  0.00    -0.287 OA
ENDBRANCH   1   4
BRANCH   1   6
ATOM      6  CB  GLU A   1      10.402   8.776  22.342  0.00  0.00    +0.037 C 
BRANCH   6   7
ATOM      7  CG  GLU A   1       9.376   8.003  21.512  0.00  0.00    +0.116 C 
BRANCH   7   8
ATOM      8  CD  GLU A   1       9.577   8.171  20.016  0.00  0.00    +0.365 C 
ATOM      9  OE2 GLU A   1       9.866   9.304  19.570  0.00  0.00    -0.246 OA
ATOM     10  OE1 GLU A   1       9.450   7.161  19.279  0.00  0.00    -0.246 OA
ENDBRANCH   7   8
ENDBRANCH   6   7
ENDBRANCH   1   6
TORSDOF 5
REMARK  Name = ../refined-set-2016/3g3r/3g3r_pocket.pdb
REMARK  184 active torsions:
REMARK  status: ('A' for Active; 'I' for Inactive)
REMARK    1  A    between atoms: _1  and  _3
REMARK    2  A    between atoms: _3  and  _4
REMARK    3  A    between atoms: _3  and  _6
REMARK    4  A    between atoms: _6  and  _7
REMARK    5  A    between atoms: _10  and  _12
REMARK    6  A    between atoms: _12  and  _13
REMARK    7  A    between atoms: _12  and  _15
REMARK    8  A    between atoms: _15  and  _16
REMARK    9  A    between atoms: _16  and  _17
REMARK   10  A    between atoms: _17  and  _18
REMARK   11  A    between atoms: _18  and  _19
REMARK   12  A    between atoms: _23  and  _25
REMARK   13  A    between atoms: _25  and  _26
REMARK   14  A    between atoms: _25  and  _28
REMARK   15  A    between atoms: _28  and  _29
REMARK   16  A    between atoms: _39  and  _41
REMARK   17  A    between atoms: _41  and  _42
REMARK   18  A    between atoms: _41  and  _44
REMARK   19  A    between atoms: _44  and  _45
REMARK   20  A    between atoms: _48  and  _50
REMARK   21  A    between atoms: _50  and  _51
REMARK   22  A    between atoms: _50  and  _53
REMARK   23  A    between atoms: _53  and  _54
REMARK   24  A    between atoms: _57  and  _59
REMARK   25  A    between atoms: _59  and  _60
REMARK   26  A    between atoms: _59  and  _62
REMARK   27  A    between atoms: _62  and  _63
REMARK   28  A    between atoms: _65  and  _67
REMARK   29  A    between atoms: _67  and  _68
REMARK   30  A    between atoms: _67  and  _70
REMARK   31  A    between atoms: _70  and  _71
REMARK   32  A    between atoms: _76  and  _77
REMARK   33  A    between atoms: _79  and  _81
REMARK   34  A    between atoms: _81  and  _82
REMARK   35  A    between atoms: _81  and  _84
REMARK   36  A    between atoms: _84  and  _85
REMARK   37  A    between atoms: _85  and  _86
REMARK   38  A    between atoms: _86  and  _87
REMARK   39  A    between atoms: _96  and  _98
REMARK   40  A    between atoms: _98  and  _99
REMARK   41  A    between atoms: _98  and  _101
REMARK   42  A    between atoms: _101  and  _102
REMARK   43  A    between atoms: _102  and  _103
REMARK   44  A    between atoms: _103  and  _104
REMARK   45  A    between atoms: _104  and  _105
REMARK   46  A    between atoms: _109  and  _111
REMARK   47  A    between atoms: _111  and  _112
REMARK   48  A    between atoms: _115  and  _117
REMARK   49  A    between atoms: _117  and  _118
REMARK   50  A    between atoms: _117  and  _120
REMARK   51  A    between atoms: _120  and  _121
REMARK   52  A    between atoms: _121  and  _122
REMARK   53  A    between atoms: _122  and  _123
REMARK   54  A    between atoms: _132  and  _134
REMARK   55  A    between atoms: _134  and  _135
REMARK   56  A    between atoms: _134  and  _137
REMARK   57  A    between atoms: _137  and  _138
REMARK   58  A    between atoms: _138  and  _139
REMARK   59  A    between atoms: _139  and  _140
REMARK   60  A    between atoms: _149  and  _151
REMARK   61  A    between atoms: _151  and  _152
REMARK   62  A    between atoms: _151  and  _154
REMARK   63  A    between atoms: _154  and  _155
REMARK   64  A    between atoms: _160  and  _161
REMARK   65  A    between atoms: _163  and  _165
REMARK   66  A    between atoms: _165  and  _166
REMARK   67  A    between atoms: _165  and  _168
REMARK   68  A    between atoms: _168  and  _169
REMARK   69  A    between atoms: _169  and  _170
REMARK   70  A    between atoms: _173  and  _175
REMARK   71  A    between atoms: _175  and  _176
REMARK   72  A    between atoms: _175  and  _178
REMARK   73  A    between atoms: _178  and  _179
REMARK   74  A    between atoms: _179  and  _180
REMARK   75  A    between atoms: _180  and  _181
REMARK   76  A    between atoms: _181  and  _182
REMARK   77  A    between atoms: _186  and  _188
REMARK   78  A    between atoms: _188  and  _189
REMARK   79  A    between atoms: _188  and  _191
REMARK   80  A    between atoms: _191  and  _192
REMARK   81  A    between atoms: _194  and  _196
REMARK   82  A    between atoms: _196  and  _197
REMARK   83  A    between atoms: _196  and  _199
REMARK   84  A    between atoms: _199  and  _200
REMARK   85  A    between atoms: _200  and  _201
REMARK   86  A    between atoms: _201  and  _202
REMARK   87  A    between atoms: _202  and  _203
REMARK   88  A    between atoms: _207  and  _209
REMARK   89  A    between atoms: _209  and  _210
REMARK   90  A    between atoms: _209  and  _212
REMARK   91  A    between atoms: _212  and  _213
REMARK   92  A    between atoms: _213  and  _214
REMARK   93  A    between atoms: _214  and  _215
REMARK   94  A    between atoms: _224  and  _226
REMARK   95  A    between atoms: _226  and  _227
REMARK   96  A    between atoms: _226  and  _229
REMARK   97  A    between atoms: _229  and  _230
REMARK   98  A    between atoms: _232  and  _234
REMARK   99  A    between atoms: _234  and  _235
REMARK  100  A    between atoms: _234  and  _237
REMARK  101  A    between atoms: _237  and  _238
REMARK  102  A    between atoms: _244  and  _246
REMARK  103  A    between atoms: _246  and  _247
REMARK  104  A    between atoms: _246  and  _249
REMARK  105  A    between atoms: _249  and  _250
REMARK  106  A    between atoms: _255  and  _256
REMARK  107  A    between atoms: _258  and  _260
REMARK  108  A    between atoms: _260  and  _261
REMARK  109  A    between atoms: _260  and  _263
REMARK  110  A    between atoms: _263  and  _264
REMARK  111  A    between atoms: _264  and  _265
REMARK  112  A    between atoms: _265  and  _266
REMARK  113  A    between atoms: _275  and  _277
REMARK  114  A    between atoms: _277  and  _278
REMARK  115  A    between atoms: _277  and  _280
REMARK  116  A    between atoms: _280  and  _281
REMARK  117  A    between atoms: _283  and  _285
REMARK  118  A    between atoms: _285  and  _286
REMARK  119  A    between atoms: _285  and  _288
REMARK  120  A    between atoms: _288  and  _289
REMARK  121  A    between atoms: _292  and  _294
REMARK  122  A    between atoms: _294  and  _295
REMARK  123  A    between atoms: _294  and  _297
REMARK  124  A    between atoms: _297  and  _298
REMARK  125  A    between atoms: _301  and  _303
REMARK  126  A    between atoms: _303  and  _304
REMARK  127  A    between atoms: _303  and  _306
REMARK  128  A    between atoms: _306  and  _307
REMARK  129  A    between atoms: _307  and  _308
REMARK  130  A    between atoms: _310  and  _312
REMARK  131  A    between atoms: _312  and  _313
REMARK  132  A    between atoms: _312  and  _315
REMARK  133  A    between atoms: _318  and  _320
REMARK  134  A    between atoms: _320  and  _321
REMARK  135  A    between atoms: _320  and  _323
REMARK  136  A    between atoms: _323  and  _324
REMARK  137  A    between atoms: _324  and  _325
REMARK  138  A    between atoms: _328  and  _330
REMARK  139  A    between atoms: _330  and  _331
REMARK  140  A    between atoms: _330  and  _333
REMARK  141  A    between atoms: _333  and  _334
REMARK  142  A    between atoms: _334  and  _335
REMARK  143  A    between atoms: _335  and  _336
REMARK  144  A    between atoms: _336  and  _337
REMARK  145  A    between atoms: _341  and  _343
REMARK  146  A    between atoms: _343  and  _344
REMARK  147  A    between atoms: _343  and  _346
REMARK  148  A    between atoms: _346  and  _347
REMARK  149  A    between atoms: _347  and  _348
REMARK  150  A    between atoms: _348  and  _349
REMARK  151  A    between atoms: _349  and  _350
REMARK  152  A    between atoms: _354  and  _356
REMARK  153  A    between atoms: _356  and  _357
REMARK  154  A    between atoms: _356  and  _359
REMARK  155  A    between atoms: _359  and  _360
REMARK  156  A    between atoms: _366  and  _368
REMARK  157  A    between atoms: _368  and  _369
REMARK  158  A    between atoms: _368  and  _371
REMARK  159  A    between atoms: _371  and  _372
REMARK  160  A    between atoms: _374  and  _376
REMARK  161  A    between atoms: _376  and  _377
REMARK  162  A    between atoms: _376  and  _379
REMARK  163  A    between atoms: _379  and  _380
REMARK  164  A    between atoms: _380  and  _381
REMARK  165  A    between atoms: _381  and  _382
REMARK  166  A    between atoms: _382  and  _383
REMARK  167  A    between atoms: _387  and  _389
REMARK  168  A    between atoms: _389  and  _390
REMARK  169  A    between atoms: _389  and  _392
REMARK  170  A    between atoms: _392  and  _393
REMARK  171  A    between atoms: _399  and  _401
REMARK  172  A    between atoms: _401  and  _402
REMARK  173  A    between atoms: _401  and  _404
REMARK  174  A    between atoms: _404  and  _405
REMARK  175  A    between atoms: _408  and  _410
REMARK  176  A    between atoms: _410  and  _411
REMARK  177  A    between atoms: _410  and  _413
REMARK  178  A    between atoms: _413  and  _414
REMARK  179  A    between atoms: _419  and  _421
REMARK  180  A    between atoms: _421  and  _422
REMARK  181  A    between atoms: _424  and  _426
REMARK  182  A    between atoms: _426  and  _427
REMARK  183  A    between atoms: _426  and  _429
REMARK  184  A    between atoms: _429  and  _430
REMARK                            x       y       z     vdW  Elec       q    Type
REMARK                         _______ _______ _______ _____ _____    ______ ____
ROOT
ATOM      1  CG  LYS A   1      16.290  12.511  20.708  0.00  0.00    -0.000 C 
ENDROOT
BRANCH   1   2
ATOM      2  CB  LYS A   1      15.682  12.586  22.088  0.00  0.00    +0.025 C 
BRANCH   2   3
ATOM      3  CA  LYS A   1      16.231  11.613  23.126  0.00  0.00    +0.133 C 
BRANCH   3   4
ATOM      4  N   LYS A   1      15.158  11.302  24.065  0.00  0.00    -0.239 NA
ATOM      5  H   LYS A   1      14.648  12.081  24.528  0.00  0.00    +0.142 HD
ENDBRANCH   3   4
BRANCH   3   6
ATOM      6  C   LYS A   1      17.315  12.274  23.954  0.00  0.00    +0.224 C 
ATOM      7  O   LYS A   1      17.019  13.184  24.714  0.00  0.00    -0.287 OA
ENDBRANCH   3   6
ENDBRANCH   2   3
ENDBRANCH   1   2
BRANCH   1   8
ATOM      8  CD  LYS A   1      15.318  13.097  19.674  0.00  0.00    -0.024 C 
BRANCH   8   9
ATOM      9  CE  LYS A   1      15.995  13.301  18.327  0.00  0.00    -0.086 C 
BRANCH   9  10
ATOM     10  NZ  LYS A   1      15.053  13.798  17.295  0.00  0.00    +0.380 N 
ATOM     11  HZ1 LYS A   1      14.657  14.710  17.599  0.00  0.00    -0.089 HD
ATOM     12  HZ2 LYS A   1      14.284  13.110  17.169  0.00  0.00    -0.089 HD
ATOM     13  HZ3 LYS A   1      15.560  13.921  16.395  0.00  0.00    -0.089 HD
ENDBRANCH   9  10
ENDBRANCH   8   9
ENDBRANCH   1   8
TORSDOF 7
REMARK  Name = ../refined-set-2016/3g3r/3g3r_pocket.pdb
REMARK  184 active torsions:
REMARK  status: ('A' for Active; 'I' for Inactive)
REMARK    1  A    between atoms: _1  and  _3
REMARK    2  A    between atoms: _3  and  _4
REMARK    3  A    between atoms: _3  and  _6
REMARK    4  A    between atoms: _6  and  _7
REMARK    5  A    between atoms: _10  and  _12
REMARK    6  A    between atoms: _12  and  _13
REMARK    7  A    between atoms: _12  and  _15
REMARK    8  A    between atoms: _15  and  _16
REMARK    9  A    between atoms: _16  and  _17
REMARK   10  A    between atoms: _17  and  _18
REMARK   11  A    between atoms: _18  and  _19
REMARK   12  A    between atoms: _23  and  _25
REMARK   13  A    between atoms: _25  and  _26
REMARK   14  A    between atoms: _25  and  _28
REMARK   15  A    between atoms: _28  and  _29
REMARK   16  A    between atoms: _39  and  _41
REMARK   17  A    between atoms: _41  and  _42
REMARK   18  A    between atoms: _41  and  _44
REMARK   19  A    between atoms: _44  and  _45
REMARK   20  A    between atoms: _48  and  _50
REMARK   21  A    between atoms: _50  and  _51
REMARK   22  A    between atoms: _50  and  _53
REMARK   23  A    between atoms: _53  and  _54
REMARK   24  A    between atoms: _57  and  _59
REMARK   25  A    between atoms: _59  and  _60
REMARK   26  A    between atoms: _59  and  _62
REMARK   27  A    between atoms: _62  and  _63
REMARK   28  A    between atoms: _65  and  _67
REMARK   29  A    between atoms: _67  and  _68
REMARK   30  A    between atoms: _67  and  _70
REMARK   31  A    between atoms: _70  and  _71
REMARK   32  A    between atoms: _76  and  _77
REMARK   33  A    between atoms: _79  and  _81
REMARK   34  A    between atoms: _81  and  _82
REMARK   35  A    between atoms: _81  and  _84
REMARK   36  A    between atoms: _84  and  _85
REMARK   37  A    between atoms: _85  and  _86
REMARK   38  A    between atoms: _86  and  _87
REMARK   39  A    between atoms: _96  and  _98
REMARK   40  A    between atoms: _98  and  _99
REMARK   41  A    between atoms: _98  and  _101
REMARK   42  A    between atoms: _101  and  _102
REMARK   43  A    between atoms: _102  and  _103
REMARK   44  A    between atoms: _103  and  _104
REMARK   45  A    between atoms: _104  and  _105
REMARK   46  A    between atoms: _109  and  _111
REMARK   47  A    between atoms: _111  and  _112
REMARK   48  A    between atoms: _115  and  _117
REMARK   49  A    between atoms: _117  and  _118
REMARK   50  A    between atoms: _117  and  _120
REMARK   51  A    between atoms: _120  and  _121
REMARK   52  A    between atoms: _121  and  _122
REMARK   53  A    between atoms: _122  and  _123
REMARK   54  A    between atoms: _132  and  _134
REMARK   55  A    between atoms: _134  and  _135
REMARK   56  A    between atoms: _134  and  _137
REMARK   57  A    between atoms: _137  and  _138
REMARK   58  A    between atoms: _138  and  _139
REMARK   59  A    between atoms: _139  and  _140
REMARK   60  A    between atoms: _149  and  _151
REMARK   61  A    between atoms: _151  and  _152
REMARK   62  A    between atoms: _151  and  _154
REMARK   63  A    between atoms: _154  and  _155
REMARK   64  A    between atoms: _160  and  _161
REMARK   65  A    between atoms: _163  and  _165
REMARK   66  A    between atoms: _165  and  _166
REMARK   67  A    between atoms: _165  and  _168
REMARK   68  A    between atoms: _168  and  _169
REMARK   69  A    between atoms: _169  and  _170
REMARK   70  A    between atoms: _173  and  _175
REMARK   71  A    between atoms: _175  and  _176
REMARK   72  A    between atoms: _175  and  _178
REMARK   73  A    between atoms: _178  and  _179
REMARK   74  A    between atoms: _179  and  _180
REMARK   75  A    between atoms: _180  and  _181
REMARK   76  A    between atoms: _181  and  _182
REMARK   77  A    between atoms: _186  and  _188
REMARK   78  A    between atoms: _188  and  _189
REMARK   79  A    between atoms: _188  and  _191
REMARK   80  A    between atoms: _191  and  _192
REMARK   81  A    between atoms: _194  and  _196
REMARK   82  A    between atoms: _196  and  _197
REMARK   83  A    between atoms: _196  and  _199
REMARK   84  A    between atoms: _199  and  _200
REMARK   85  A    between atoms: _200  and  _201
REMARK   86  A    between atoms: _201  and  _202
REMARK   87  A    between atoms: _202  and  _203
REMARK   88  A    between atoms: _207  and  _209
REMARK   89  A    between atoms: _209  and  _210
REMARK   90  A    between atoms: _209  and  _212
REMARK   91  A    between atoms: _212  and  _213
REMARK   92  A    between atoms: _213  and  _214
REMARK   93  A    between atoms: _214  and  _215
REMARK   94  A    between atoms: _224  and  _226
REMARK   95  A    between atoms: _226  and  _227
REMARK   96  A    between atoms: _226  and  _229
REMARK   97  A    between atoms: _229  and  _230
REMARK   98  A    between atoms: _232  and  _234
REMARK   99  A    between atoms: _234  and  _235
REMARK  100  A    between atoms: _234  and  _237
REMARK  101  A    between atoms: _237  and  _238
REMARK  102  A    between atoms: _244  and  _246
REMARK  103  A    between atoms: _246  and  _247
REMARK  104  A    between atoms: _246  and  _249
REMARK  105  A    between atoms: _249  and  _250
REMARK  106  A    between atoms: _255  and  _256
REMARK  107  A    between atoms: _258  and  _260
REMARK  108  A    between atoms: _260  and  _261
REMARK  109  A    between atoms: _260  and  _263
REMARK  110  A    between atoms: _263  and  _264
REMARK  111  A    between atoms: _264  and  _265
REMARK  112  A    between atoms: _265  and  _266
REMARK  113  A    between atoms: _275  and  _277
REMARK  114  A    between atoms: _277  and  _278
REMARK  115  A    between atoms: _277  and  _280
REMARK  116  A    between atoms: _280  and  _281
REMARK  117  A    between atoms: _283  and  _285
REMARK  118  A    between atoms: _285  and  _286
REMARK  119  A    between atoms: _285  and  _288
REMARK  120  A    between atoms: _288  and  _289
REMARK  121  A    between atoms: _292  and  _294
REMARK  122  A    between atoms: _294  and  _295
REMARK  123  A    between atoms: _294  and  _297
REMARK  124  A    between atoms: _297  and  _298
REMARK  125  A    between atoms: _301  and  _303
REMARK  126  A    between atoms: _303  and  _304
REMARK  127  A    between atoms: _303  and  _306
REMARK  128  A    between atoms: _306  and  _307
REMARK  129  A    between atoms: _307  and  _308
REMARK  130  A    between atoms: _310  and  _312
REMARK  131  A    between atoms: _312  and  _313
REMARK  132  A    between atoms: _312  and  _315
REMARK  133  A    between atoms: _318  and  _320
REMARK  134  A    between atoms: _320  and  _321
REMARK  135  A    between atoms: _320  and  _323
REMARK  136  A    between atoms: _323  and  _324
REMARK  137  A    between atoms: _324  and  _325
REMARK  138  A    between atoms: _328  and  _330
REMARK  139  A    between atoms: _330  and  _331
REMARK  140  A    between atoms: _330  and  _333
REMARK  141  A    between atoms: _333  and  _334
REMARK  142  A    between atoms: _334  and  _335
REMARK  143  A    between atoms: _335  and  _336
REMARK  144  A    between atoms: _336  and  _337
REMARK  145  A    between atoms: _341  and  _343
REMARK  146  A    between atoms: _343  and  _344
REMARK  147  A    between atoms: _343  and  _346
REMARK  148  A    between atoms: _346  and  _347
REMARK  149  A    between atoms: _347  and  _348
REMARK  150  A    between atoms: _348  and  _349
REMARK  151  A    between atoms: _349  and  _350
REMARK  152  A    between atoms: _354  and  _356
REMARK  153  A    between atoms: _356  and  _357
REMARK  154  A    between atoms: _356  and  _359
REMARK  155  A    between atoms: _359  and  _360
REMARK  156  A    between atoms: _366  and  _368
REMARK  157  A    between atoms: _368  and  _369
REMARK  158  A    between atoms: _368  and  _371
REMARK  159  A    between atoms: _371  and  _372
REMARK  160  A    between atoms: _374  and  _376
REMARK  161  A    between atoms: _376  and  _377
REMARK  162  A    between atoms: _376  and  _379
REMARK  163  A    between atoms: _379  and  _380
REMARK  164  A    between atoms: _380  and  _381
REMARK  165  A    between atoms: _381  and  _382
REMARK  166  A    between atoms: _382  and  _383
REMARK  167  A    between atoms: _387  and  _389
REMARK  168  A    between atoms: _389  and  _390
REMARK  169  A    between atoms: _389  and  _392
REMARK  170  A    between atoms: _392  and  _393
REMARK  171  A    between atoms: _399  and  _401
REMARK  172  A    between atoms: _401  and  _402
REMARK  173  A    between atoms: _401  and  _404
REMARK  174  A    between atoms: _404  and  _405
REMARK  175  A    between atoms: _408  and  _410
REMARK  176  A    between atoms: _410  and  _411
REMARK  177  A    between atoms: _410  and  _413
REMARK  178  A    between atoms: _413  and  _414
REMARK  179  A    between atoms: _419  and  _421
REMARK  180  A    between atoms: _421  and  _422
REMARK  181  A    between atoms: _424  and  _426
REMARK  182  A    between atoms: _426  and  _427
REMARK  183  A    between atoms: _426  and  _429
REMARK  184  A    between atoms: _429  and  _430
REMARK                            x       y       z     vdW  Elec       q    Type
REMARK                         _______ _______ _______ _____ _____    ______ ____
ROOT
ATOM      1  CA  SER A   1      21.699  11.962  19.316  0.00  0.00    +0.163 C 
ENDROOT
BRANCH   1   2
ATOM      2  N   SER A   1      22.973  12.031  18.610  0.00  0.00    -0.237 NA
ATOM      3  H   SER A   1      23.054  11.577  17.678  0.00  0.00    +0.142 HD
ENDBRANCH   1   2
BRANCH   1   4
ATOM      4  CB  SER A   1      21.386  10.510  19.609  0.00  0.00    +0.227 C 
ATOM      5  OG  SER A   1      21.452   9.657  18.721  0.00  0.00    -0.287 OA
ENDBRANCH   1   4
BRANCH   1   6
ATOM      6  C   SER A   1      20.576  12.564  18.471  0.00  0.00    +0.162 C 
BRANCH   6   7
ATOM      7  O   SER A   1      19.308  12.367  19.085  0.00  0.00    -0.380 OA
ATOM      8  H   SER A   1      19.302  12.801  19.975  0.00  0.00    +0.211 HD
ENDBRANCH   6   7
ENDBRANCH   1   6
TORSDOF 4
REMARK  Name = ../refined-set-2016/3g3r/3g3r_pocket.pdb
REMARK  184 active torsions:
REMARK  status: ('A' for Active; 'I' for Inactive)
REMARK    1  A    between atoms: _1  and  _3
REMARK    2  A    between atoms: _3  and  _4
REMARK    3  A    between atoms: _3  and  _6
REMARK    4  A    between atoms: _6  and  _7
REMARK    5  A    between atoms: _10  and  _12
REMARK    6  A    between atoms: _12  and  _13
REMARK    7  A    between atoms: _12  and  _15
REMARK    8  A    between atoms: _15  and  _16
REMARK    9  A    between atoms: _16  and  _17
REMARK   10  A    between atoms: _17  and  _18
REMARK   11  A    between atoms: _18  and  _19
REMARK   12  A    between atoms: _23  and  _25
REMARK   13  A    between atoms: _25  and  _26
REMARK   14  A    between atoms: _25  and  _28
REMARK   15  A    between atoms: _28  and  _29
REMARK   16  A    between atoms: _39  and  _41
REMARK   17  A    between atoms: _41  and  _42
REMARK   18  A    between atoms: _41  and  _44
REMARK   19  A    between atoms: _44  and  _45
REMARK   20  A    between atoms: _48  and  _50
REMARK   21  A    between atoms: _50  and  _51
REMARK   22  A    between atoms: _50  and  _53
REMARK   23  A    between atoms: _53  and  _54
REMARK   24  A    between atoms: _57  and  _59
REMARK   25  A    between atoms: _59  and  _60
REMARK   26  A    between atoms: _59  and  _62
REMARK   27  A    between atoms: _62  and  _63
REMARK   28  A    between atoms: _65  and  _67
REMARK   29  A    between atoms: _67  and  _68
REMARK   30  A    between atoms: _67  and  _70
REMARK   31  A    between atoms: _70  and  _71
REMARK   32  A    between atoms: _76  and  _77
REMARK   33  A    between atoms: _79  and  _81
REMARK   34  A    between atoms: _81  and  _82
REMARK   35  A    between atoms: _81  and  _84
REMARK   36  A    between atoms: _84  and  _85
REMARK   37  A    between atoms: _85  and  _86
REMARK   38  A    between atoms: _86  and  _87
REMARK   39  A    between atoms: _96  and  _98
REMARK   40  A    between atoms: _98  and  _99
REMARK   41  A    between atoms: _98  and  _101
REMARK   42  A    between atoms: _101  and  _102
REMARK   43  A    between atoms: _102  and  _103
REMARK   44  A    between atoms: _103  and  _104
REMARK   45  A    between atoms: _104  and  _105
REMARK   46  A    between atoms: _109  and  _111
REMARK   47  A    between atoms: _111  and  _112
REMARK   48  A    between atoms: _115  and  _117
REMARK   49  A    between atoms: _117  and  _118
REMARK   50  A    between atoms: _117  and  _120
REMARK   51  A    between atoms: _120  and  _121
REMARK   52  A    between atoms: _121  and  _122
REMARK   53  A    between atoms: _122  and  _123
REMARK   54  A    between atoms: _132  and  _134
REMARK   55  A    between atoms: _134  and  _135
REMARK   56  A    between atoms: _134  and  _137
REMARK   57  A    between atoms: _137  and  _138
REMARK   58  A    between atoms: _138  and  _139
REMARK   59  A    between atoms: _139  and  _140
REMARK   60  A    between atoms: _149  and  _151
REMARK   61  A    between atoms: _151  and  _152
REMARK   62  A    between atoms: _151  and  _154
REMARK   63  A    between atoms: _154  and  _155
REMARK   64  A    between atoms: _160  and  _161
REMARK   65  A    between atoms: _163  and  _165
REMARK   66  A    between atoms: _165  and  _166
REMARK   67  A    between atoms: _165  and  _168
REMARK   68  A    between atoms: _168  and  _169
REMARK   69  A    between atoms: _169  and  _170
REMARK   70  A    between atoms: _173  and  _175
REMARK   71  A    between atoms: _175  and  _176
REMARK   72  A    between atoms: _175  and  _178
REMARK   73  A    between atoms: _178  and  _179
REMARK   74  A    between atoms: _179  and  _180
REMARK   75  A    between atoms: _180  and  _181
REMARK   76  A    between atoms: _181  and  _182
REMARK   77  A    between atoms: _186  and  _188
REMARK   78  A    between atoms: _188  and  _189
REMARK   79  A    between atoms: _188  and  _191
REMARK   80  A    between atoms: _191  and  _192
REMARK   81  A    between atoms: _194  and  _196
REMARK   82  A    between atoms: _196  and  _197
REMARK   83  A    between atoms: _196  and  _199
REMARK   84  A    between atoms: _199  and  _200
REMARK   85  A    between atoms: _200  and  _201
REMARK   86  A    between atoms: _201  and  _202
REMARK   87  A    between atoms: _202  and  _203
REMARK   88  A    between atoms: _207  and  _209
REMARK   89  A    between atoms: _209  and  _210
REMARK   90  A    between atoms: _209  and  _212
REMARK   91  A    between atoms: _212  and  _213
REMARK   92  A    between atoms: _213  and  _214
REMARK   93  A    between atoms: _214  and  _215
REMARK   94  A    between atoms: _224  and  _226
REMARK   95  A    between atoms: _226  and  _227
REMARK   96  A    between atoms: _226  and  _229
REMARK   97  A    between atoms: _229  and  _230
REMARK   98  A    between atoms: _232  and  _234
REMARK   99  A    between atoms: _234  and  _235
REMARK  100  A    between atoms: _234  and  _237
REMARK  101  A    between atoms: _237  and  _238
REMARK  102  A    between atoms: _244  and  _246
REMARK  103  A    between atoms: _246  and  _247
REMARK  104  A    between atoms: _246  and  _249
REMARK  105  A    between atoms: _249  and  _250
REMARK  106  A    between atoms: _255  and  _256
REMARK  107  A    between atoms: _258  and  _260
REMARK  108  A    between atoms: _260  and  _261
REMARK  109  A    between atoms: _260  and  _263
REMARK  110  A    between atoms: _263  and  _264
REMARK  111  A    between atoms: _264  and  _265
REMARK  112  A    between atoms: _265  and  _266
REMARK  113  A    between atoms: _275  and  _277
REMARK  114  A    between atoms: _277  and  _278
REMARK  115  A    between atoms: _277  and  _280
REMARK  116  A    between atoms: _280  and  _281
REMARK  117  A    between atoms: _283  and  _285
REMARK  118  A    between atoms: _285  and  _286
REMARK  119  A    between atoms: _285  and  _288
REMARK  120  A    between atoms: _288  and  _289
REMARK  121  A    between atoms: _292  and  _294
REMARK  122  A    between atoms: _294  and  _295
REMARK  123  A    between atoms: _294  and  _297
REMARK  124  A    between atoms: _297  and  _298
REMARK  125  A    between atoms: _301  and  _303
REMARK  126  A    between atoms: _303  and  _304
REMARK  127  A    between atoms: _303  and  _306
REMARK  128  A    between atoms: _306  and  _307
REMARK  129  A    between atoms: _307  and  _308
REMARK  130  A    between atoms: _310  and  _312
REMARK  131  A    between atoms: _312  and  _313
REMARK  132  A    between atoms: _312  and  _315
REMARK  133  A    between atoms: _318  and  _320
REMARK  134  A    between atoms: _320  and  _321
REMARK  135  A    between atoms: _320  and  _323
REMARK  136  A    between atoms: _323  and  _324
REMARK  137  A    between atoms: _324  and  _325
REMARK  138  A    between atoms: _328  and  _330
REMARK  139  A    between atoms: _330  and  _331
REMARK  140  A    between atoms: _330  and  _333
REMARK  141  A    between atoms: _333  and  _334
REMARK  142  A    between atoms: _334  and  _335
REMARK  143  A    between atoms: _335  and  _336
REMARK  144  A    between atoms: _336  and  _337
REMARK  145  A    between atoms: _341  and  _343
REMARK  146  A    between atoms: _343  and  _344
REMARK  147  A    between atoms: _343  and  _346
REMARK  148  A    between atoms: _346  and  _347
REMARK  149  A    between atoms: _347  and  _348
REMARK  150  A    between atoms: _348  and  _349
REMARK  151  A    between atoms: _349  and  _350
REMARK  152  A    between atoms: _354  and  _356
REMARK  153  A    between atoms: _356  and  _357
REMARK  154  A    between atoms: _356  and  _359
REMARK  155  A    between atoms: _359  and  _360
REMARK  156  A    between atoms: _366  and  _368
REMARK  157  A    between atoms: _368  and  _369
REMARK  158  A    between atoms: _368  and  _371
REMARK  159  A    between atoms: _371  and  _372
REMARK  160  A    between atoms: _374  and  _376
REMARK  161  A    between atoms: _376  and  _377
REMARK  162  A    between atoms: _376  and  _379
REMARK  163  A    between atoms: _379  and  _380
REMARK  164  A    between atoms: _380  and  _381
REMARK  165  A    between atoms: _381  and  _382
REMARK  166  A    between atoms: _382  and  _383
REMARK  167  A    between atoms: _387  and  _389
REMARK  168  A    between atoms: _389  and  _390
REMARK  169  A    between atoms: _389  and  _392
REMARK  170  A    between atoms: _392  and  _393
REMARK  171  A    between atoms: _399  and  _401
REMARK  172  A    between atoms: _401  and  _402
REMARK  173  A    between atoms: _401  and  _404
REMARK  174  A    between atoms: _404  and  _405
REMARK  175  A    between atoms: _408  and  _410
REMARK  176  A    between atoms: _410  and  _411
REMARK  177  A    between atoms: _410  and  _413
REMARK  178  A    between atoms: _413  and  _414
REMARK  179  A    between atoms: _419  and  _421
REMARK  180  A    between atoms: _421  and  _422
REMARK  181  A    between atoms: _424  and  _426
REMARK  182  A    between atoms: _426  and  _427
REMARK  183  A    between atoms: _426  and  _429
REMARK  184  A    between atoms: _429  and  _430
REMARK                            x       y       z     vdW  Elec       q    Type
REMARK                         _______ _______ _______ _____ _____    ______ ____
ROOT
ATOM      1  CG  LYS A   1      16.340   9.232  19.009  0.00  0.00    -0.000 C 
ENDROOT
BRANCH   1   2
ATOM      2  CB  LYS A   1      16.222   7.911  19.764  0.00  0.00    +0.025 C 
BRANCH   2   3
ATOM      3  CA  LYS A   1      17.020   7.829  21.077  0.00  0.00    +0.133 C 
BRANCH   3   4
ATOM      4  N   LYS A   1      18.457   8.023  20.837  0.00  0.00    -0.239 NA
ATOM      5  H   LYS A   1      18.903   7.518  20.045  0.00  0.00    +0.142 HD
ENDBRANCH   3   4
BRANCH   3   6
ATOM      6  C   LYS A   1      16.732   6.481  21.726  0.00  0.00    +0.224 C 
ATOM      7  O   LYS A   1      17.248   5.450  21.285  0.00  0.00    -0.287 OA
ENDBRANCH   3   6
ENDBRANCH   2   3
ENDBRANCH   1   2
BRANCH   1   8
ATOM      8  CD  LYS A   1      15.657   9.160  17.642  0.00  0.00    -0.024 C 
BRANCH   8   9
ATOM      9  CE  LYS A   1      14.198   8.732  17.759  0.00  0.00    -0.086 C 
BRANCH   9  10
ATOM     10  NZ  LYS A   1      13.500   8.813  16.443  0.00  0.00    +0.380 N 
ATOM     11  HZ1 LYS A   1      12.510   8.515  16.558  0.00  0.00    -0.089 HD
ATOM     12  HZ2 LYS A   1      13.530   9.793  16.096  0.00  0.00    -0.089 HD
ATOM     13  HZ3 LYS A   1      13.975   8.187  15.761  0.00  0.00    -0.089 HD
ENDBRANCH   9  10
ENDBRANCH   8   9
ENDBRANCH   1   8
TORSDOF 7
REMARK  Name = ../refined-set-2016/3g3r/3g3r_pocket.pdb
REMARK  184 active torsions:
REMARK  status: ('A' for Active; 'I' for Inactive)
REMARK    1  A    between atoms: _1  and  _3
REMARK    2  A    between atoms: _3  and  _4
REMARK    3  A    between atoms: _3  and  _6
REMARK    4  A    between atoms: _6  and  _7
REMARK    5  A    between atoms: _10  and  _12
REMARK    6  A    between atoms: _12  and  _13
REMARK    7  A    between atoms: _12  and  _15
REMARK    8  A    between atoms: _15  and  _16
REMARK    9  A    between atoms: _16  and  _17
REMARK   10  A    between atoms: _17  and  _18
REMARK   11  A    between atoms: _18  and  _19
REMARK   12  A    between atoms: _23  and  _25
REMARK   13  A    between atoms: _25  and  _26
REMARK   14  A    between atoms: _25  and  _28
REMARK   15  A    between atoms: _28  and  _29
REMARK   16  A    between atoms: _39  and  _41
REMARK   17  A    between atoms: _41  and  _42
REMARK   18  A    between atoms: _41  and  _44
REMARK   19  A    between atoms: _44  and  _45
REMARK   20  A    between atoms: _48  and  _50
REMARK   21  A    between atoms: _50  and  _51
REMARK   22  A    between atoms: _50  and  _53
REMARK   23  A    between atoms: _53  and  _54
REMARK   24  A    between atoms: _57  and  _59
REMARK   25  A    between atoms: _59  and  _60
REMARK   26  A    between atoms: _59  and  _62
REMARK   27  A    between atoms: _62  and  _63
REMARK   28  A    between atoms: _65  and  _67
REMARK   29  A    between atoms: _67  and  _68
REMARK   30  A    between atoms: _67  and  _70
REMARK   31  A    between atoms: _70  and  _71
REMARK   32  A    between atoms: _76  and  _77
REMARK   33  A    between atoms: _79  and  _81
REMARK   34  A    between atoms: _81  and  _82
REMARK   35  A    between atoms: _81  and  _84
REMARK   36  A    between atoms: _84  and  _85
REMARK   37  A    between atoms: _85  and  _86
REMARK   38  A    between atoms: _86  and  _87
REMARK   39  A    between atoms: _96  and  _98
REMARK   40  A    between atoms: _98  and  _99
REMARK   41  A    between atoms: _98  and  _101
REMARK   42  A    between atoms: _101  and  _102
REMARK   43  A    between atoms: _102  and  _103
REMARK   44  A    between atoms: _103  and  _104
REMARK   45  A    between atoms: _104  and  _105
REMARK   46  A    between atoms: _109  and  _111
REMARK   47  A    between atoms: _111  and  _112
REMARK   48  A    between atoms: _115  and  _117
REMARK   49  A    between atoms: _117  and  _118
REMARK   50  A    between atoms: _117  and  _120
REMARK   51  A    between atoms: _120  and  _121
REMARK   52  A    between atoms: _121  and  _122
REMARK   53  A    between atoms: _122  and  _123
REMARK   54  A    between atoms: _132  and  _134
REMARK   55  A    between atoms: _134  and  _135
REMARK   56  A    between atoms: _134  and  _137
REMARK   57  A    between atoms: _137  and  _138
REMARK   58  A    between atoms: _138  and  _139
REMARK   59  A    between atoms: _139  and  _140
REMARK   60  A    between atoms: _149  and  _151
REMARK   61  A    between atoms: _151  and  _152
REMARK   62  A    between atoms: _151  and  _154
REMARK   63  A    between atoms: _154  and  _155
REMARK   64  A    between atoms: _160  and  _161
REMARK   65  A    between atoms: _163  and  _165
REMARK   66  A    between atoms: _165  and  _166
REMARK   67  A    between atoms: _165  and  _168
REMARK   68  A    between atoms: _168  and  _169
REMARK   69  A    between atoms: _169  and  _170
REMARK   70  A    between atoms: _173  and  _175
REMARK   71  A    between atoms: _175  and  _176
REMARK   72  A    between atoms: _175  and  _178
REMARK   73  A    between atoms: _178  and  _179
REMARK   74  A    between atoms: _179  and  _180
REMARK   75  A    between atoms: _180  and  _181
REMARK   76  A    between atoms: _181  and  _182
REMARK   77  A    between atoms: _186  and  _188
REMARK   78  A    between atoms: _188  and  _189
REMARK   79  A    between atoms: _188  and  _191
REMARK   80  A    between atoms: _191  and  _192
REMARK   81  A    between atoms: _194  and  _196
REMARK   82  A    between atoms: _196  and  _197
REMARK   83  A    between atoms: _196  and  _199
REMARK   84  A    between atoms: _199  and  _200
REMARK   85  A    between atoms: _200  and  _201
REMARK   86  A    between atoms: _201  and  _202
REMARK   87  A    between atoms: _202  and  _203
REMARK   88  A    between atoms: _207  and  _209
REMARK   89  A    between atoms: _209  and  _210
REMARK   90  A    between atoms: _209  and  _212
REMARK   91  A    between atoms: _212  and  _213
REMARK   92  A    between atoms: _213  and  _214
REMARK   93  A    between atoms: _214  and  _215
REMARK   94  A    between atoms: _224  and  _226
REMARK   95  A    between atoms: _226  and  _227
REMARK   96  A    between atoms: _226  and  _229
REMARK   97  A    between atoms: _229  and  _230
REMARK   98  A    between atoms: _232  and  _234
REMARK   99  A    between atoms: _234  and  _235
REMARK  100  A    between atoms: _234  and  _237
REMARK  101  A    between atoms: _237  and  _238
REMARK  102  A    between atoms: _244  and  _246
REMARK  103  A    between atoms: _246  and  _247
REMARK  104  A    between atoms: _246  and  _249
REMARK  105  A    between atoms: _249  and  _250
REMARK  106  A    between atoms: _255  and  _256
REMARK  107  A    between atoms: _258  and  _260
REMARK  108  A    between atoms: _260  and  _261
REMARK  109  A    between atoms: _260  and  _263
REMARK  110  A    between atoms: _263  and  _264
REMARK  111  A    between atoms: _264  and  _265
REMARK  112  A    between atoms: _265  and  _266
REMARK  113  A    between atoms: _275  and  _277
REMARK  114  A    between atoms: _277  and  _278
REMARK  115  A    between atoms: _277  and  _280
REMARK  116  A    between atoms: _280  and  _281
REMARK  117  A    between atoms: _283  and  _285
REMARK  118  A    between atoms: _285  and  _286
REMARK  119  A    between atoms: _285  and  _288
REMARK  120  A    between atoms: _288  and  _289
REMARK  121  A    between atoms: _292  and  _294
REMARK  122  A    between atoms: _294  and  _295
REMARK  123  A    between atoms: _294  and  _297
REMARK  124  A    between atoms: _297  and  _298
REMARK  125  A    between atoms: _301  and  _303
REMARK  126  A    between atoms: _303  and  _304
REMARK  127  A    between atoms: _303  and  _306
REMARK  128  A    between atoms: _306  and  _307
REMARK  129  A    between atoms: _307  and  _308
REMARK  130  A    between atoms: _310  and  _312
REMARK  131  A    between atoms: _312  and  _313
REMARK  132  A    between atoms: _312  and  _315
REMARK  133  A    between atoms: _318  and  _320
REMARK  134  A    between atoms: _320  and  _321
REMARK  135  A    between atoms: _320  and  _323
REMARK  136  A    between atoms: _323  and  _324
REMARK  137  A    between atoms: _324  and  _325
REMARK  138  A    between atoms: _328  and  _330
REMARK  139  A    between atoms: _330  and  _331
REMARK  140  A    between atoms: _330  and  _333
REMARK  141  A    between atoms: _333  and  _334
REMARK  142  A    between atoms: _334  and  _335
REMARK  143  A    between atoms: _335  and  _336
REMARK  144  A    between atoms: _336  and  _337
REMARK  145  A    between atoms: _341  and  _343
REMARK  146  A    between atoms: _343  and  _344
REMARK  147  A    between atoms: _343  and  _346
REMARK  148  A    between atoms: _346  and  _347
REMARK  149  A    between atoms: _347  and  _348
REMARK  150  A    between atoms: _348  and  _349
REMARK  151  A    between atoms: _349  and  _350
REMARK  152  A    between atoms: _354  and  _356
REMARK  153  A    between atoms: _356  and  _357
REMARK  154  A    between atoms: _356  and  _359
REMARK  155  A    between atoms: _359  and  _360
REMARK  156  A    between atoms: _366  and  _368
REMARK  157  A    between atoms: _368  and  _369
REMARK  158  A    between atoms: _368  and  _371
REMARK  159  A    between atoms: _371  and  _372
REMARK  160  A    between atoms: _374  and  _376
REMARK  161  A    between atoms: _376  and  _377
REMARK  162  A    between atoms: _376  and  _379
REMARK  163  A    between atoms: _379  and  _380
REMARK  164  A    between atoms: _380  and  _381
REMARK  165  A    between atoms: _381  and  _382
REMARK  166  A    between atoms: _382  and  _383
REMARK  167  A    between atoms: _387  and  _389
REMARK  168  A    between atoms: _389  and  _390
REMARK  169  A    between atoms: _389  and  _392
REMARK  170  A    between atoms: _392  and  _393
REMARK  171  A    between atoms: _399  and  _401
REMARK  172  A    between atoms: _401  and  _402
REMARK  173  A    between atoms: _401  and  _404
REMARK  174  A    between atoms: _404  and  _405
REMARK  175  A    between atoms: _408  and  _410
REMARK  176  A    between atoms: _410  and  _411
REMARK  177  A    between atoms: _410  and  _413
REMARK  178  A    between atoms: _413  and  _414
REMARK  179  A    between atoms: _419  and  _421
REMARK  180  A    between atoms: _421  and  _422
REMARK  181  A    between atoms: _424  and  _426
REMARK  182  A    between atoms: _426  and  _427
REMARK  183  A    between atoms: _426  and  _429
REMARK  184  A    between atoms: _429  and  _430
REMARK                            x       y       z     vdW  Elec       q    Type
REMARK                         _______ _______ _______ _____ _____    ______ ____
ROOT
ATOM      1  NE  ARG A   1      10.234   3.210  18.872  0.00  0.00    -0.265 N 
ATOM      2  HE  ARG A   1      10.600   2.250  19.031  0.00  0.00    +0.259 HD
ATOM      3  CZ  ARG A   1       9.520   3.428  17.767  0.00  0.00    +0.342 C 
ATOM      4  NH2 ARG A   1       9.033   4.635  17.508  0.00  0.00    -0.292 N 
ATOM      5 HH21 ARG A   1       9.207   5.419  18.169  0.00  0.00    +0.255 HD
ATOM      6 HH22 ARG A   1       8.477   4.797  16.644  0.00  0.00    +0.255 HD
ATOM      7  NH1 ARG A   1       9.294   2.438  16.912  0.00  0.00    -0.292 N 
ATOM      8 HH11 ARG A   1       9.674   1.489  17.103  0.00  0.00    +0.255 HD
ATOM      9 HH12 ARG A   1       8.737   2.611  16.051  0.00  0.00    +0.255 HD
ENDROOT
BRANCH   1  10
ATOM     10  CD  ARG A   1      10.536   4.226  19.871  0.00  0.00    +0.174 C 
BRANCH  10  11
ATOM     11  CG  ARG A   1      11.117   3.650  21.158  0.00  0.00    +0.045 C 
BRANCH  11  12
ATOM     12  CB  ARG A   1      10.980   4.660  22.288  0.00  0.00    +0.029 C 
BRANCH  12  13
ATOM     13  CA  ARG A   1      11.698   4.292  23.587  0.00  0.00    +0.133 C 
BRANCH  13  14
ATOM     14  N   ARG A   1      13.156   4.290  23.401  0.00  0.00    -0.239 NA
ATOM     15  H   ARG A   1      13.630   3.410  23.115  0.00  0.00    +0.142 HD
ENDBRANCH  13  14
BRANCH  13  16
ATOM     16  C   ARG A   1      11.200   2.940  24.061  0.00  0.00    +0.224 C 
ATOM     17  O   ARG A   1      11.900   1.936  23.943  0.00  0.00    -0.287 OA
ENDBRANCH  13  16
ENDBRANCH  12  13
ENDBRANCH  11  12
ENDBRANCH  10  11
ENDBRANCH   1  10
TORSDOF 6
REMARK  Name = ../refined-set-2016/3g3r/3g3r_pocket.pdb
REMARK  184 active torsions:
REMARK  status: ('A' for Active; 'I' for Inactive)
REMARK    1  A    between atoms: _1  and  _3
REMARK    2  A    between atoms: _3  and  _4
REMARK    3  A    between atoms: _3  and  _6
REMARK    4  A    between atoms: _6  and  _7
REMARK    5  A    between atoms: _10  and  _12
REMARK    6  A    between atoms: _12  and  _13
REMARK    7  A    between atoms: _12  and  _15
REMARK    8  A    between atoms: _15  and  _16
REMARK    9  A    between atoms: _16  and  _17
REMARK   10  A    between atoms: _17  and  _18
REMARK   11  A    between atoms: _18  and  _19
REMARK   12  A    between atoms: _23  and  _25
REMARK   13  A    between atoms: _25  and  _26
REMARK   14  A    between atoms: _25  and  _28
REMARK   15  A    between atoms: _28  and  _29
REMARK   16  A    between atoms: _39  and  _41
REMARK   17  A    between atoms: _41  and  _42
REMARK   18  A    between atoms: _41  and  _44
REMARK   19  A    between atoms: _44  and  _45
REMARK   20  A    between atoms: _48  and  _50
REMARK   21  A    between atoms: _50  and  _51
REMARK   22  A    between atoms: _50  and  _53
REMARK   23  A    between atoms: _53  and  _54
REMARK   24  A    between atoms: _57  and  _59
REMARK   25  A    between atoms: _59  and  _60
REMARK   26  A    between atoms: _59  and  _62
REMARK   27  A    between atoms: _62  and  _63
REMARK   28  A    between atoms: _65  and  _67
REMARK   29  A    between atoms: _67  and  _68
REMARK   30  A    between atoms: _67  and  _70
REMARK   31  A    between atoms: _70  and  _71
REMARK   32  A    between atoms: _76  and  _77
REMARK   33  A    between atoms: _79  and  _81
REMARK   34  A    between atoms: _81  and  _82
REMARK   35  A    between atoms: _81  and  _84
REMARK   36  A    between atoms: _84  and  _85
REMARK   37  A    between atoms: _85  and  _86
REMARK   38  A    between atoms: _86  and  _87
REMARK   39  A    between atoms: _96  and  _98
REMARK   40  A    between atoms: _98  and  _99
REMARK   41  A    between atoms: _98  and  _101
REMARK   42  A    between atoms: _101  and  _102
REMARK   43  A    between atoms: _102  and  _103
REMARK   44  A    between atoms: _103  and  _104
REMARK   45  A    between atoms: _104  and  _105
REMARK   46  A    between atoms: _109  and  _111
REMARK   47  A    between atoms: _111  and  _112
REMARK   48  A    between atoms: _115  and  _117
REMARK   49  A    between atoms: _117  and  _118
REMARK   50  A    between atoms: _117  and  _120
REMARK   51  A    between atoms: _120  and  _121
REMARK   52  A    between atoms: _121  and  _122
REMARK   53  A    between atoms: _122  and  _123
REMARK   54  A    between atoms: _132  and  _134
REMARK   55  A    between atoms: _134  and  _135
REMARK   56  A    between atoms: _134  and  _137
REMARK   57  A    between atoms: _137  and  _138
REMARK   58  A    between atoms: _138  and  _139
REMARK   59  A    between atoms: _139  and  _140
REMARK   60  A    between atoms: _149  and  _151
REMARK   61  A    between atoms: _151  and  _152
REMARK   62  A    between atoms: _151  and  _154
REMARK   63  A    between atoms: _154  and  _155
REMARK   64  A    between atoms: _160  and  _161
REMARK   65  A    between atoms: _163  and  _165
REMARK   66  A    between atoms: _165  and  _166
REMARK   67  A    between atoms: _165  and  _168
REMARK   68  A    between atoms: _168  and  _169
REMARK   69  A    between atoms: _169  and  _170
REMARK   70  A    between atoms: _173  and  _175
REMARK   71  A    between atoms: _175  and  _176
REMARK   72  A    between atoms: _175  and  _178
REMARK   73  A    between atoms: _178  and  _179
REMARK   74  A    between atoms: _179  and  _180
REMARK   75  A    between atoms: _180  and  _181
REMARK   76  A    between atoms: _181  and  _182
REMARK   77  A    between atoms: _186  and  _188
REMARK   78  A    between atoms: _188  and  _189
REMARK   79  A    between atoms: _188  and  _191
REMARK   80  A    between atoms: _191  and  _192
REMARK   81  A    between atoms: _194  and  _196
REMARK   82  A    between atoms: _196  and  _197
REMARK   83  A    between atoms: _196  and  _199
REMARK   84  A    between atoms: _199  and  _200
REMARK   85  A    between atoms: _200  and  _201
REMARK   86  A    between atoms: _201  and  _202
REMARK   87  A    between atoms: _202  and  _203
REMARK   88  A    between atoms: _207  and  _209
REMARK   89  A    between atoms: _209  and  _210
REMARK   90  A    between atoms: _209  and  _212
REMARK   91  A    between atoms: _212  and  _213
REMARK   92  A    between atoms: _213  and  _214
REMARK   93  A    between atoms: _214  and  _215
REMARK   94  A    between atoms: _224  and  _226
REMARK   95  A    between atoms: _226  and  _227
REMARK   96  A    between atoms: _226  and  _229
REMARK   97  A    between atoms: _229  and  _230
REMARK   98  A    between atoms: _232  and  _234
REMARK   99  A    between atoms: _234  and  _235
REMARK  100  A    between atoms: _234  and  _237
REMARK  101  A    between atoms: _237  and  _238
REMARK  102  A    between atoms: _244  and  _246
REMARK  103  A    between atoms: _246  and  _247
REMARK  104  A    between atoms: _246  and  _249
REMARK  105  A    between atoms: _249  and  _250
REMARK  106  A    between atoms: _255  and  _256
REMARK  107  A    between atoms: _258  and  _260
REMARK  108  A    between atoms: _260  and  _261
REMARK  109  A    between atoms: _260  and  _263
REMARK  110  A    between atoms: _263  and  _264
REMARK  111  A    between atoms: _264  and  _265
REMARK  112  A    between atoms: _265  and  _266
REMARK  113  A    between atoms: _275  and  _277
REMARK  114  A    between atoms: _277  and  _278
REMARK  115  A    between atoms: _277  and  _280
REMARK  116  A    between atoms: _280  and  _281
REMARK  117  A    between atoms: _283  and  _285
REMARK  118  A    between atoms: _285  and  _286
REMARK  119  A    between atoms: _285  and  _288
REMARK  120  A    between atoms: _288  and  _289
REMARK  121  A    between atoms: _292  and  _294
REMARK  122  A    between atoms: _294  and  _295
REMARK  123  A    between atoms: _294  and  _297
REMARK  124  A    between atoms: _297  and  _298
REMARK  125  A    between atoms: _301  and  _303
REMARK  126  A    between atoms: _303  and  _304
REMARK  127  A    between atoms: _303  and  _306
REMARK  128  A    between atoms: _306  and  _307
REMARK  129  A    between atoms: _307  and  _308
REMARK  130  A    between atoms: _310  and  _312
REMARK  131  A    between atoms: _312  and  _313
REMARK  132  A    between atoms: _312  and  _315
REMARK  133  A    between atoms: _318  and  _320
REMARK  134  A    between atoms: _320  and  _321
REMARK  135  A    between atoms: _320  and  _323
REMARK  136  A    between atoms: _323  and  _324
REMARK  137  A    between atoms: _324  and  _325
REMARK  138  A    between atoms: _328  and  _330
REMARK  139  A    between atoms: _330  and  _331
REMARK  140  A    between atoms: _330  and  _333
REMARK  141  A    between atoms: _333  and  _334
REMARK  142  A    between atoms: _334  and  _335
REMARK  143  A    between atoms: _335  and  _336
REMARK  144  A    between atoms: _336  and  _337
REMARK  145  A    between atoms: _341  and  _343
REMARK  146  A    between atoms: _343  and  _344
REMARK  147  A    between atoms: _343  and  _346
REMARK  148  A    between atoms: _346  and  _347
REMARK  149  A    between atoms: _347  and  _348
REMARK  150  A    between atoms: _348  and  _349
REMARK  151  A    between atoms: _349  and  _350
REMARK  152  A    between atoms: _354  and  _356
REMARK  153  A    between atoms: _356  and  _357
REMARK  154  A    between atoms: _356  and  _359
REMARK  155  A    between atoms: _359  and  _360
REMARK  156  A    between atoms: _366  and  _368
REMARK  157  A    between atoms: _368  and  _369
REMARK  158  A    between atoms: _368  and  _371
REMARK  159  A    between atoms: _371  and  _372
REMARK  160  A    between atoms: _374  and  _376
REMARK  161  A    between atoms: _376  and  _377
REMARK  162  A    between atoms: _376  and  _379
REMARK  163  A    between atoms: _379  and  _380
REMARK  164  A    between atoms: _380  and  _381
REMARK  165  A    between atoms: _381  and  _382
REMARK  166  A    between atoms: _382  and  _383
REMARK  167  A    between atoms: _387  and  _389
REMARK  168  A    between atoms: _389  and  _390
REMARK  169  A    between atoms: _389  and  _392
REMARK  170  A    between atoms: _392  and  _393
REMARK  171  A    between atoms: _399  and  _401
REMARK  172  A    between atoms: _401  and  _402
REMARK  173  A    between atoms: _401  and  _404
REMARK  174  A    between atoms: _404  and  _405
REMARK  175  A    between atoms: _408  and  _410
REMARK  176  A    between atoms: _410  and  _411
REMARK  177  A    between atoms: _410  and  _413
REMARK  178  A    between atoms: _413  and  _414
REMARK  179  A    between atoms: _419  and  _421
REMARK  180  A    between atoms: _421  and  _422
REMARK  181  A    between atoms: _424  and  _426
REMARK  182  A    between atoms: _426  and  _427
REMARK  183  A    between atoms: _426  and  _429
REMARK  184  A    between atoms: _429  and  _430
REMARK                            x       y       z     vdW  Elec       q    Type
REMARK                         _______ _______ _______ _____ _____    ______ ____
ROOT
ATOM      1  CA  PHE A   2       2.391  17.496  14.284  0.00  0.00    +0.153 C 
ENDROOT
BRANCH   1   4
ATOM      2  C   SER A   1       3.551  17.853  16.371  0.00  0.00    +0.241 C 
ATOM      3  O   SER A   1       3.251  16.736  16.774  0.00  0.00    -0.274 OA
ATOM      4  N   PHE A   2       3.093  18.346  15.231  0.00  0.00    -0.297 N 
ATOM      5  H   PHE A   2       3.237  19.352  15.011  0.00  0.00    +0.150 HD
BRANCH   2   6
ATOM      6  CA  SER A   1       4.432  18.781  17.216  0.00  0.00    +0.174 C 
BRANCH   6   7
ATOM      7  N   SER A   1       4.075  18.590  18.624  0.00  0.00    -0.236 NA
ATOM      8  H   SER A   1       4.369  17.732  19.133  0.00  0.00    +0.142 HD
ENDBRANCH   6   7
BRANCH   6   9
ATOM      9  CB  SER A   1       5.918  18.535  16.945  0.00  0.00    +0.163 C 
BRANCH   9  10
ATOM     10  OG  SER A   1       6.249  17.171  17.103  0.00  0.00    -0.380 OA
ATOM     11  H   SER A   1       7.214  17.044  16.922  0.00  0.00    +0.211 HD
ENDBRANCH   9  10
ENDBRANCH   6   9
ENDBRANCH   2   6
ENDBRANCH   1   4
BRANCH   1  12
ATOM     12  C   PHE A   2       2.967  17.704  12.912  0.00  0.00    +0.241 C 
ATOM     13  O   PHE A   2       3.327  18.812  12.549  0.00  0.00    -0.273 OA
ATOM     14  N   TYR A   3       3.054  16.627  12.147  0.00  0.00    -0.298 N 
ATOM     15  H   TYR A   3       2.829  15.693  12.546  0.00  0.00    +0.150 HD
BRANCH  14  16
ATOM     16  CA  TYR A   3       3.460  16.735  10.757  0.00  0.00    +0.141 C 
BRANCH  16  17
ATOM     17  C   TYR A   3       3.123  15.457  10.002  0.00  0.00    +0.227 C 
ATOM     18  O   TYR A   3       2.858  14.419  10.601  0.00  0.00    -0.286 OA
ENDBRANCH  16  17
BRANCH  16  19
ATOM     19  CB  TYR A   3       4.950  17.090  10.625  0.00  0.00    +0.054 C 
BRANCH  19  20
ATOM     20  CG  TYR A   3       5.883  16.169  11.369  0.00  0.00    -0.020 A 
ATOM     21  CD2 TYR A   3       6.208  16.400  12.703  0.00  0.00    -0.001 A 
ATOM     22  CE2 TYR A   3       7.077  15.552  13.391  0.00  0.00    +0.036 A 
ATOM     23  CZ  TYR A   3       7.611  14.448  12.743  0.00  0.00    +0.134 A 
ATOM     24  CE1 TYR A   3       7.299  14.201  11.420  0.00  0.00    +0.036 A 
ATOM     25  CD1 TYR A   3       6.443  15.060  10.740  0.00  0.00    -0.001 A 
BRANCH  23  26
ATOM     26  OH  TYR A   3       8.470  13.593  13.414  0.00  0.00    -0.506 OA
ATOM     27  HH  TYR A   3       9.265  14.098  13.718  0.00  0.00    +0.292 HD
ENDBRANCH  23  26
ENDBRANCH  19  20
ENDBRANCH  16  19
ENDBRANCH  14  16
ENDBRANCH   1  12
BRANCH   1  28
ATOM     28  CB  PHE A   2       0.894  17.818  14.226  0.00  0.00    +0.055 C 
BRANCH  28  29
ATOM     29  CG  PHE A   2       0.224  17.248  13.008  0.00  0.00    -0.020 A 
ATOM     30  CD2 PHE A   2      -0.213  15.931  12.995  0.00  0.00    -0.004 A 
ATOM     31  CE2 PHE A   2      -0.816  15.391  11.857  0.00  0.00    -0.000 A 
ATOM     32  CZ  PHE A   2      -0.959  16.168  10.710  0.00  0.00    -0.000 A 
ATOM     33  CE1 PHE A   2      -0.502  17.473  10.704  0.00  0.00    -0.000 A 
ATOM     34  CD1 PHE A   2       0.093  18.010  11.849  0.00  0.00    -0.004 A 
ENDBRANCH  28  29
ENDBRANCH   1  28
TORSDOF 13
REMARK  Name = ../refined-set-2016/3g3r/3g3r_pocket.pdb
REMARK  184 active torsions:
REMARK  status: ('A' for Active; 'I' for Inactive)
REMARK    1  A    between atoms: _1  and  _3
REMARK    2  A    between atoms: _3  and  _4
REMARK    3  A    between atoms: _3  and  _6
REMARK    4  A    between atoms: _6  and  _7
REMARK    5  A    between atoms: _10  and  _12
REMARK    6  A    between atoms: _12  and  _13
REMARK    7  A    between atoms: _12  and  _15
REMARK    8  A    between atoms: _15  and  _16
REMARK    9  A    between atoms: _16  and  _17
REMARK   10  A    between atoms: _17  and  _18
REMARK   11  A    between atoms: _18  and  _19
REMARK   12  A    between atoms: _23  and  _25
REMARK   13  A    between atoms: _25  and  _26
REMARK   14  A    between atoms: _25  and  _28
REMARK   15  A    between atoms: _28  and  _29
REMARK   16  A    between atoms: _39  and  _41
REMARK   17  A    between atoms: _41  and  _42
REMARK   18  A    between atoms: _41  and  _44
REMARK   19  A    between atoms: _44  and  _45
REMARK   20  A    between atoms: _48  and  _50
REMARK   21  A    between atoms: _50  and  _51
REMARK   22  A    between atoms: _50  and  _53
REMARK   23  A    between atoms: _53  and  _54
REMARK   24  A    between atoms: _57  and  _59
REMARK   25  A    between atoms: _59  and  _60
REMARK   26  A    between atoms: _59  and  _62
REMARK   27  A    between atoms: _62  and  _63
REMARK   28  A    between atoms: _65  and  _67
REMARK   29  A    between atoms: _67  and  _68
REMARK   30  A    between atoms: _67  and  _70
REMARK   31  A    between atoms: _70  and  _71
REMARK   32  A    between atoms: _76  and  _77
REMARK   33  A    between atoms: _79  and  _81
REMARK   34  A    between atoms: _81  and  _82
REMARK   35  A    between atoms: _81  and  _84
REMARK   36  A    between atoms: _84  and  _85
REMARK   37  A    between atoms: _85  and  _86
REMARK   38  A    between atoms: _86  and  _87
REMARK   39  A    between atoms: _96  and  _98
REMARK   40  A    between atoms: _98  and  _99
REMARK   41  A    between atoms: _98  and  _101
REMARK   42  A    between atoms: _101  and  _102
REMARK   43  A    between atoms: _102  and  _103
REMARK   44  A    between atoms: _103  and  _104
REMARK   45  A    between atoms: _104  and  _105
REMARK   46  A    between atoms: _109  and  _111
REMARK   47  A    between atoms: _111  and  _112
REMARK   48  A    between atoms: _115  and  _117
REMARK   49  A    between atoms: _117  and  _118
REMARK   50  A    between atoms: _117  and  _120
REMARK   51  A    between atoms: _120  and  _121
REMARK   52  A    between atoms: _121  and  _122
REMARK   53  A    between atoms: _122  and  _123
REMARK   54  A    between atoms: _132  and  _134
REMARK   55  A    between atoms: _134  and  _135
REMARK   56  A    between atoms: _134  and  _137
REMARK   57  A    between atoms: _137  and  _138
REMARK   58  A    between atoms: _138  and  _139
REMARK   59  A    between atoms: _139  and  _140
REMARK   60  A    between atoms: _149  and  _151
REMARK   61  A    between atoms: _151  and  _152
REMARK   62  A    between atoms: _151  and  _154
REMARK   63  A    between atoms: _154  and  _155
REMARK   64  A    between atoms: _160  and  _161
REMARK   65  A    between atoms: _163  and  _165
REMARK   66  A    between atoms: _165  and  _166
REMARK   67  A    between atoms: _165  and  _168
REMARK   68  A    between atoms: _168  and  _169
REMARK   69  A    between atoms: _169  and  _170
REMARK   70  A    between atoms: _173  and  _175
REMARK   71  A    between atoms: _175  and  _176
REMARK   72  A    between atoms: _175  and  _178
REMARK   73  A    between atoms: _178  and  _179
REMARK   74  A    between atoms: _179  and  _180
REMARK   75  A    between atoms: _180  and  _181
REMARK   76  A    between atoms: _181  and  _182
REMARK   77  A    between atoms: _186  and  _188
REMARK   78  A    between atoms: _188  and  _189
REMARK   79  A    between atoms: _188  and  _191
REMARK   80  A    between atoms: _191  and  _192
REMARK   81  A    between atoms: _194  and  _196
REMARK   82  A    between atoms: _196  and  _197
REMARK   83  A    between atoms: _196  and  _199
REMARK   84  A    between atoms: _199  and  _200
REMARK   85  A    between atoms: _200  and  _201
REMARK   86  A    between atoms: _201  and  _202
REMARK   87  A    between atoms: _202  and  _203
REMARK   88  A    between atoms: _207  and  _209
REMARK   89  A    between atoms: _209  and  _210
REMARK   90  A    between atoms: _209  and  _212
REMARK   91  A    between atoms: _212  and  _213
REMARK   92  A    between atoms: _213  and  _214
REMARK   93  A    between atoms: _214  and  _215
REMARK   94  A    between atoms: _224  and  _226
REMARK   95  A    between atoms: _226  and  _227
REMARK   96  A    between atoms: _226  and  _229
REMARK   97  A    between atoms: _229  and  _230
REMARK   98  A    between atoms: _232  and  _234
REMARK   99  A    between atoms: _234  and  _235
REMARK  100  A    between atoms: _234  and  _237
REMARK  101  A    between atoms: _237  and  _238
REMARK  102  A    between atoms: _244  and  _246
REMARK  103  A    between atoms: _246  and  _247
REMARK  104  A    between atoms: _246  and  _249
REMARK  105  A    between atoms: _249  and  _250
REMARK  106  A    between atoms: _255  and  _256
REMARK  107  A    between atoms: _258  and  _260
REMARK  108  A    between atoms: _260  and  _261
REMARK  109  A    between atoms: _260  and  _263
REMARK  110  A    between atoms: _263  and  _264
REMARK  111  A    between atoms: _264  and  _265
REMARK  112  A    between atoms: _265  and  _266
REMARK  113  A    between atoms: _275  and  _277
REMARK  114  A    between atoms: _277  and  _278
REMARK  115  A    between atoms: _277  and  _280
REMARK  116  A    between atoms: _280  and  _281
REMARK  117  A    between atoms: _283  and  _285
REMARK  118  A    between atoms: _285  and  _286
REMARK  119  A    between atoms: _285  and  _288
REMARK  120  A    between atoms: _288  and  _289
REMARK  121  A    between atoms: _292  and  _294
REMARK  122  A    between atoms: _294  and  _295
REMARK  123  A    between atoms: _294  and  _297
REMARK  124  A    between atoms: _297  and  _298
REMARK  125  A    between atoms: _301  and  _303
REMARK  126  A    between atoms: _303  and  _304
REMARK  127  A    between atoms: _303  and  _306
REMARK  128  A    between atoms: _306  and  _307
REMARK  129  A    between atoms: _307  and  _308
REMARK  130  A    between atoms: _310  and  _312
REMARK  131  A    between atoms: _312  and  _313
REMARK  132  A    between atoms: _312  and  _315
REMARK  133  A    between atoms: _318  and  _320
REMARK  134  A    between atoms: _320  and  _321
REMARK  135  A    between atoms: _320  and  _323
REMARK  136  A    between atoms: _323  and  _324
REMARK  137  A    between atoms: _324  and  _325
REMARK  138  A    between atoms: _328  and  _330
REMARK  139  A    between atoms: _330  and  _331
REMARK  140  A    between atoms: _330  and  _333
REMARK  141  A    between atoms: _333  and  _334
REMARK  142  A    between atoms: _334  and  _335
REMARK  143  A    between atoms: _335  and  _336
REMARK  144  A    between atoms: _336  and  _337
REMARK  145  A    between atoms: _341  and  _343
REMARK  146  A    between atoms: _343  and  _344
REMARK  147  A    between atoms: _343  and  _346
REMARK  148  A    between atoms: _346  and  _347
REMARK  149  A    between atoms: _347  and  _348
REMARK  150  A    between atoms: _348  and  _349
REMARK  151  A    between atoms: _349  and  _350
REMARK  152  A    between atoms: _354  and  _356
REMARK  153  A    between atoms: _356  and  _357
REMARK  154  A    between atoms: _356  and  _359
REMARK  155  A    between atoms: _359  and  _360
REMARK  156  A    between atoms: _366  and  _368
REMARK  157  A    between atoms: _368  and  _369
REMARK  158  A    between atoms: _368  and  _371
REMARK  159  A    between atoms: _371  and  _372
REMARK  160  A    between atoms: _374  and  _376
REMARK  161  A    between atoms: _376  and  _377
REMARK  162  A    between atoms: _376  and  _379
REMARK  163  A    between atoms: _379  and  _380
REMARK  164  A    between atoms: _380  and  _381
REMARK  165  A    between atoms: _381  and  _382
REMARK  166  A    between atoms: _382  and  _383
REMARK  167  A    between atoms: _387  and  _389
REMARK  168  A    between atoms: _389  and  _390
REMARK  169  A    between atoms: _389  and  _392
REMARK  170  A    between atoms: _392  and  _393
REMARK  171  A    between atoms: _399  and  _401
REMARK  172  A    between atoms: _401  and  _402
REMARK  173  A    between atoms: _401  and  _404
REMARK  174  A    between atoms: _404  and  _405
REMARK  175  A    between atoms: _408  and  _410
REMARK  176  A    between atoms: _410  and  _411
REMARK  177  A    between atoms: _410  and  _413
REMARK  178  A    between atoms: _413  and  _414
REMARK  179  A    between atoms: _419  and  _421
REMARK  180  A    between atoms: _421  and  _422
REMARK  181  A    between atoms: _424  and  _426
REMARK  182  A    between atoms: _426  and  _427
REMARK  183  A    between atoms: _426  and  _429
REMARK  184  A    between atoms: _429  and  _430
REMARK                            x       y       z     vdW  Elec       q    Type
REMARK                         _______ _______ _______ _____ _____    ______ ____
ROOT
ATOM      1  NE  ARG A   1       9.640  12.152   9.592  0.00  0.00    -0.265 N 
ATOM      2  CZ  ARG A   1      10.377  12.222  10.696  0.00  0.00    +0.342 C 
ATOM      3  NH2 ARG A   1      10.587  11.130  11.424  0.00  0.00    -0.292 N 
ATOM      4 HH21 ARG A   1      11.164  11.184  12.288  0.00  0.00    +0.255 HD
ATOM      5 HH22 ARG A   1      10.175  10.222  11.130  0.00  0.00    +0.255 HD
ATOM      6  NH1 ARG A   1      10.891  13.383  11.082  0.00  0.00    -0.292 N 
ATOM      7 HH11 ARG A   1      11.467  13.435  11.946  0.00  0.00    +0.255 HD
ATOM      8 HH12 ARG A   1      10.718  14.241  10.520  0.00  0.00    +0.255 HD
ATOM      9  HE  ARG A   1       9.487  13.026   9.050  0.00  0.00    +0.259 HD
ENDROOT
BRANCH   1  10
ATOM     10  CD  ARG A   1       9.032  10.920   9.095  0.00  0.00    +0.174 C 
BRANCH  10  11
ATOM     11  CG  ARG A   1       8.184  11.172   7.877  0.00  0.00    +0.045 C 
BRANCH  11  12
ATOM     12  CB  ARG A   1       6.901  11.888   8.267  0.00  0.00    +0.029 C 
BRANCH  12  13
ATOM     13  CA  ARG A   1       6.191  12.526   7.085  0.00  0.00    +0.133 C 
BRANCH  13  14
ATOM     14  N   ARG A   1       4.839  12.884   7.452  0.00  0.00    -0.239 NA
ATOM     15  H   ARG A   1       4.189  12.151   7.801  0.00  0.00    +0.142 HD
ENDBRANCH  13  14
BRANCH  13  16
ATOM     16  C   ARG A   1       6.190  11.549   5.930  0.00  0.00    +0.224 C 
ATOM     17  O   ARG A   1       5.455  10.568   5.956  0.00  0.00    -0.287 OA
ENDBRANCH  13  16
ENDBRANCH  12  13
ENDBRANCH  11  12
ENDBRANCH  10  11
ENDBRANCH   1  10
TORSDOF 6
REMARK  Name = ../refined-set-2016/3g3r/3g3r_pocket.pdb
REMARK  184 active torsions:
REMARK  status: ('A' for Active; 'I' for Inactive)
REMARK    1  A    between atoms: _1  and  _3
REMARK    2  A    between atoms: _3  and  _4
REMARK    3  A    between atoms: _3  and  _6
REMARK    4  A    between atoms: _6  and  _7
REMARK    5  A    between atoms: _10  and  _12
REMARK    6  A    between atoms: _12  and  _13
REMARK    7  A    between atoms: _12  and  _15
REMARK    8  A    between atoms: _15  and  _16
REMARK    9  A    between atoms: _16  and  _17
REMARK   10  A    between atoms: _17  and  _18
REMARK   11  A    between atoms: _18  and  _19
REMARK   12  A    between atoms: _23  and  _25
REMARK   13  A    between atoms: _25  and  _26
REMARK   14  A    between atoms: _25  and  _28
REMARK   15  A    between atoms: _28  and  _29
REMARK   16  A    between atoms: _39  and  _41
REMARK   17  A    between atoms: _41  and  _42
REMARK   18  A    between atoms: _41  and  _44
REMARK   19  A    between atoms: _44  and  _45
REMARK   20  A    between atoms: _48  and  _50
REMARK   21  A    between atoms: _50  and  _51
REMARK   22  A    between atoms: _50  and  _53
REMARK   23  A    between atoms: _53  and  _54
REMARK   24  A    between atoms: _57  and  _59
REMARK   25  A    between atoms: _59  and  _60
REMARK   26  A    between atoms: _59  and  _62
REMARK   27  A    between atoms: _62  and  _63
REMARK   28  A    between atoms: _65  and  _67
REMARK   29  A    between atoms: _67  and  _68
REMARK   30  A    between atoms: _67  and  _70
REMARK   31  A    between atoms: _70  and  _71
REMARK   32  A    between atoms: _76  and  _77
REMARK   33  A    between atoms: _79  and  _81
REMARK   34  A    between atoms: _81  and  _82
REMARK   35  A    between atoms: _81  and  _84
REMARK   36  A    between atoms: _84  and  _85
REMARK   37  A    between atoms: _85  and  _86
REMARK   38  A    between atoms: _86  and  _87
REMARK   39  A    between atoms: _96  and  _98
REMARK   40  A    between atoms: _98  and  _99
REMARK   41  A    between atoms: _98  and  _101
REMARK   42  A    between atoms: _101  and  _102
REMARK   43  A    between atoms: _102  and  _103
REMARK   44  A    between atoms: _103  and  _104
REMARK   45  A    between atoms: _104  and  _105
REMARK   46  A    between atoms: _109  and  _111
REMARK   47  A    between atoms: _111  and  _112
REMARK   48  A    between atoms: _115  and  _117
REMARK   49  A    between atoms: _117  and  _118
REMARK   50  A    between atoms: _117  and  _120
REMARK   51  A    between atoms: _120  and  _121
REMARK   52  A    between atoms: _121  and  _122
REMARK   53  A    between atoms: _122  and  _123
REMARK   54  A    between atoms: _132  and  _134
REMARK   55  A    between atoms: _134  and  _135
REMARK   56  A    between atoms: _134  and  _137
REMARK   57  A    between atoms: _137  and  _138
REMARK   58  A    between atoms: _138  and  _139
REMARK   59  A    between atoms: _139  and  _140
REMARK   60  A    between atoms: _149  and  _151
REMARK   61  A    between atoms: _151  and  _152
REMARK   62  A    between atoms: _151  and  _154
REMARK   63  A    between atoms: _154  and  _155
REMARK   64  A    between atoms: _160  and  _161
REMARK   65  A    between atoms: _163  and  _165
REMARK   66  A    between atoms: _165  and  _166
REMARK   67  A    between atoms: _165  and  _168
REMARK   68  A    between atoms: _168  and  _169
REMARK   69  A    between atoms: _169  and  _170
REMARK   70  A    between atoms: _173  and  _175
REMARK   71  A    between atoms: _175  and  _176
REMARK   72  A    between atoms: _175  and  _178
REMARK   73  A    between atoms: _178  and  _179
REMARK   74  A    between atoms: _179  and  _180
REMARK   75  A    between atoms: _180  and  _181
REMARK   76  A    between atoms: _181  and  _182
REMARK   77  A    between atoms: _186  and  _188
REMARK   78  A    between atoms: _188  and  _189
REMARK   79  A    between atoms: _188  and  _191
REMARK   80  A    between atoms: _191  and  _192
REMARK   81  A    between atoms: _194  and  _196
REMARK   82  A    between atoms: _196  and  _197
REMARK   83  A    between atoms: _196  and  _199
REMARK   84  A    between atoms: _199  and  _200
REMARK   85  A    between atoms: _200  and  _201
REMARK   86  A    between atoms: _201  and  _202
REMARK   87  A    between atoms: _202  and  _203
REMARK   88  A    between atoms: _207  and  _209
REMARK   89  A    between atoms: _209  and  _210
REMARK   90  A    between atoms: _209  and  _212
REMARK   91  A    between atoms: _212  and  _213
REMARK   92  A    between atoms: _213  and  _214
REMARK   93  A    between atoms: _214  and  _215
REMARK   94  A    between atoms: _224  and  _226
REMARK   95  A    between atoms: _226  and  _227
REMARK   96  A    between atoms: _226  and  _229
REMARK   97  A    between atoms: _229  and  _230
REMARK   98  A    between atoms: _232  and  _234
REMARK   99  A    between atoms: _234  and  _235
REMARK  100  A    between atoms: _234  and  _237
REMARK  101  A    between atoms: _237  and  _238
REMARK  102  A    between atoms: _244  and  _246
REMARK  103  A    between atoms: _246  and  _247
REMARK  104  A    between atoms: _246  and  _249
REMARK  105  A    between atoms: _249  and  _250
REMARK  106  A    between atoms: _255  and  _256
REMARK  107  A    between atoms: _258  and  _260
REMARK  108  A    between atoms: _260  and  _261
REMARK  109  A    between atoms: _260  and  _263
REMARK  110  A    between atoms: _263  and  _264
REMARK  111  A    between atoms: _264  and  _265
REMARK  112  A    between atoms: _265  and  _266
REMARK  113  A    between atoms: _275  and  _277
REMARK  114  A    between atoms: _277  and  _278
REMARK  115  A    between atoms: _277  and  _280
REMARK  116  A    between atoms: _280  and  _281
REMARK  117  A    between atoms: _283  and  _285
REMARK  118  A    between atoms: _285  and  _286
REMARK  119  A    between atoms: _285  and  _288
REMARK  120  A    between atoms: _288  and  _289
REMARK  121  A    between atoms: _292  and  _294
REMARK  122  A    between atoms: _294  and  _295
REMARK  123  A    between atoms: _294  and  _297
REMARK  124  A    between atoms: _297  and  _298
REMARK  125  A    between atoms: _301  and  _303
REMARK  126  A    between atoms: _303  and  _304
REMARK  127  A    between atoms: _303  and  _306
REMARK  128  A    between atoms: _306  and  _307
REMARK  129  A    between atoms: _307  and  _308
REMARK  130  A    between atoms: _310  and  _312
REMARK  131  A    between atoms: _312  and  _313
REMARK  132  A    between atoms: _312  and  _315
REMARK  133  A    between atoms: _318  and  _320
REMARK  134  A    between atoms: _320  and  _321
REMARK  135  A    between atoms: _320  and  _323
REMARK  136  A    between atoms: _323  and  _324
REMARK  137  A    between atoms: _324  and  _325
REMARK  138  A    between atoms: _328  and  _330
REMARK  139  A    between atoms: _330  and  _331
REMARK  140  A    between atoms: _330  and  _333
REMARK  141  A    between atoms: _333  and  _334
REMARK  142  A    between atoms: _334  and  _335
REMARK  143  A    between atoms: _335  and  _336
REMARK  144  A    between atoms: _336  and  _337
REMARK  145  A    between atoms: _341  and  _343
REMARK  146  A    between atoms: _343  and  _344
REMARK  147  A    between atoms: _343  and  _346
REMARK  148  A    between atoms: _346  and  _347
REMARK  149  A    between atoms: _347  and  _348
REMARK  150  A    between atoms: _348  and  _349
REMARK  151  A    between atoms: _349  and  _350
REMARK  152  A    between atoms: _354  and  _356
REMARK  153  A    between atoms: _356  and  _357
REMARK  154  A    between atoms: _356  and  _359
REMARK  155  A    between atoms: _359  and  _360
REMARK  156  A    between atoms: _366  and  _368
REMARK  157  A    between atoms: _368  and  _369
REMARK  158  A    between atoms: _368  and  _371
REMARK  159  A    between atoms: _371  and  _372
REMARK  160  A    between atoms: _374  and  _376
REMARK  161  A    between atoms: _376  and  _377
REMARK  162  A    between atoms: _376  and  _379
REMARK  163  A    between atoms: _379  and  _380
REMARK  164  A    between atoms: _380  and  _381
REMARK  165  A    between atoms: _381  and  _382
REMARK  166  A    between atoms: _382  and  _383
REMARK  167  A    between atoms: _387  and  _389
REMARK  168  A    between atoms: _389  and  _390
REMARK  169  A    between atoms: _389  and  _392
REMARK  170  A    between atoms: _392  and  _393
REMARK  171  A    between atoms: _399  and  _401
REMARK  172  A    between atoms: _401  and  _402
REMARK  173  A    between atoms: _401  and  _404
REMARK  174  A    between atoms: _404  and  _405
REMARK  175  A    between atoms: _408  and  _410
REMARK  176  A    between atoms: _410  and  _411
REMARK  177  A    between atoms: _410  and  _413
REMARK  178  A    between atoms: _413  and  _414
REMARK  179  A    between atoms: _419  and  _421
REMARK  180  A    between atoms: _421  and  _422
REMARK  181  A    between atoms: _424  and  _426
REMARK  182  A    between atoms: _426  and  _427
REMARK  183  A    between atoms: _426  and  _429
REMARK  184  A    between atoms: _429  and  _430
REMARK                            x       y       z     vdW  Elec       q    Type
REMARK                         _______ _______ _______ _____ _____    ______ ____
ROOT
ATOM      1  CA  SER A   1      12.435  12.205   5.429  0.00  0.00    +0.163 C 
ENDROOT
BRANCH   1   2
ATOM      2  N   SER A   1      13.817  11.978   5.008  0.00  0.00    -0.237 NA
ATOM      3  H   SER A   1      14.567  12.621   5.333  0.00  0.00    +0.142 HD
ENDBRANCH   1   2
BRANCH   1   4
ATOM      4  CB  SER A   1      12.032  13.636   5.113  0.00  0.00    +0.227 C 
ATOM      5  OG  SER A   1      12.810  14.567   5.316  0.00  0.00    -0.287 OA
ENDBRANCH   1   4
BRANCH   1   6
ATOM      6  C   SER A   1      12.260  11.915   6.922  0.00  0.00    +0.162 C 
BRANCH   6   7
ATOM      7  O   SER A   1      13.237  12.613   7.680  0.00  0.00    -0.380 OA
ATOM      8  H   SER A   1      13.110  12.415   8.642  0.00  0.00    +0.211 HD
ENDBRANCH   6   7
ENDBRANCH   1   6
TORSDOF 4
REMARK  Name = ../refined-set-2016/3g3r/3g3r_pocket.pdb
REMARK  184 active torsions:
REMARK  status: ('A' for Active; 'I' for Inactive)
REMARK    1  A    between atoms: _1  and  _3
REMARK    2  A    between atoms: _3  and  _4
REMARK    3  A    between atoms: _3  and  _6
REMARK    4  A    between atoms: _6  and  _7
REMARK    5  A    between atoms: _10  and  _12
REMARK    6  A    between atoms: _12  and  _13
REMARK    7  A    between atoms: _12  and  _15
REMARK    8  A    between atoms: _15  and  _16
REMARK    9  A    between atoms: _16  and  _17
REMARK   10  A    between atoms: _17  and  _18
REMARK   11  A    between atoms: _18  and  _19
REMARK   12  A    between atoms: _23  and  _25
REMARK   13  A    between atoms: _25  and  _26
REMARK   14  A    between atoms: _25  and  _28
REMARK   15  A    between atoms: _28  and  _29
REMARK   16  A    between atoms: _39  and  _41
REMARK   17  A    between atoms: _41  and  _42
REMARK   18  A    between atoms: _41  and  _44
REMARK   19  A    between atoms: _44  and  _45
REMARK   20  A    between atoms: _48  and  _50
REMARK   21  A    between atoms: _50  and  _51
REMARK   22  A    between atoms: _50  and  _53
REMARK   23  A    between atoms: _53  and  _54
REMARK   24  A    between atoms: _57  and  _59
REMARK   25  A    between atoms: _59  and  _60
REMARK   26  A    between atoms: _59  and  _62
REMARK   27  A    between atoms: _62  and  _63
REMARK   28  A    between atoms: _65  and  _67
REMARK   29  A    between atoms: _67  and  _68
REMARK   30  A    between atoms: _67  and  _70
REMARK   31  A    between atoms: _70  and  _71
REMARK   32  A    between atoms: _76  and  _77
REMARK   33  A    between atoms: _79  and  _81
REMARK   34  A    between atoms: _81  and  _82
REMARK   35  A    between atoms: _81  and  _84
REMARK   36  A    between atoms: _84  and  _85
REMARK   37  A    between atoms: _85  and  _86
REMARK   38  A    between atoms: _86  and  _87
REMARK   39  A    between atoms: _96  and  _98
REMARK   40  A    between atoms: _98  and  _99
REMARK   41  A    between atoms: _98  and  _101
REMARK   42  A    between atoms: _101  and  _102
REMARK   43  A    between atoms: _102  and  _103
REMARK   44  A    between atoms: _103  and  _104
REMARK   45  A    between atoms: _104  and  _105
REMARK   46  A    between atoms: _109  and  _111
REMARK   47  A    between atoms: _111  and  _112
REMARK   48  A    between atoms: _115  and  _117
REMARK   49  A    between atoms: _117  and  _118
REMARK   50  A    between atoms: _117  and  _120
REMARK   51  A    between atoms: _120  and  _121
REMARK   52  A    between atoms: _121  and  _122
REMARK   53  A    between atoms: _122  and  _123
REMARK   54  A    between atoms: _132  and  _134
REMARK   55  A    between atoms: _134  and  _135
REMARK   56  A    between atoms: _134  and  _137
REMARK   57  A    between atoms: _137  and  _138
REMARK   58  A    between atoms: _138  and  _139
REMARK   59  A    between atoms: _139  and  _140
REMARK   60  A    between atoms: _149  and  _151
REMARK   61  A    between atoms: _151  and  _152
REMARK   62  A    between atoms: _151  and  _154
REMARK   63  A    between atoms: _154  and  _155
REMARK   64  A    between atoms: _160  and  _161
REMARK   65  A    between atoms: _163  and  _165
REMARK   66  A    between atoms: _165  and  _166
REMARK   67  A    between atoms: _165  and  _168
REMARK   68  A    between atoms: _168  and  _169
REMARK   69  A    between atoms: _169  and  _170
REMARK   70  A    between atoms: _173  and  _175
REMARK   71  A    between atoms: _175  and  _176
REMARK   72  A    between atoms: _175  and  _178
REMARK   73  A    between atoms: _178  and  _179
REMARK   74  A    between atoms: _179  and  _180
REMARK   75  A    between atoms: _180  and  _181
REMARK   76  A    between atoms: _181  and  _182
REMARK   77  A    between atoms: _186  and  _188
REMARK   78  A    between atoms: _188  and  _189
REMARK   79  A    between atoms: _188  and  _191
REMARK   80  A    between atoms: _191  and  _192
REMARK   81  A    between atoms: _194  and  _196
REMARK   82  A    between atoms: _196  and  _197
REMARK   83  A    between atoms: _196  and  _199
REMARK   84  A    between atoms: _199  and  _200
REMARK   85  A    between atoms: _200  and  _201
REMARK   86  A    between atoms: _201  and  _202
REMARK   87  A    between atoms: _202  and  _203
REMARK   88  A    between atoms: _207  and  _209
REMARK   89  A    between atoms: _209  and  _210
REMARK   90  A    between atoms: _209  and  _212
REMARK   91  A    between atoms: _212  and  _213
REMARK   92  A    between atoms: _213  and  _214
REMARK   93  A    between atoms: _214  and  _215
REMARK   94  A    between atoms: _224  and  _226
REMARK   95  A    between atoms: _226  and  _227
REMARK   96  A    between atoms: _226  and  _229
REMARK   97  A    between atoms: _229  and  _230
REMARK   98  A    between atoms: _232  and  _234
REMARK   99  A    between atoms: _234  and  _235
REMARK  100  A    between atoms: _234  and  _237
REMARK  101  A    between atoms: _237  and  _238
REMARK  102  A    between atoms: _244  and  _246
REMARK  103  A    between atoms: _246  and  _247
REMARK  104  A    between atoms: _246  and  _249
REMARK  105  A    between atoms: _249  and  _250
REMARK  106  A    between atoms: _255  and  _256
REMARK  107  A    between atoms: _258  and  _260
REMARK  108  A    between atoms: _260  and  _261
REMARK  109  A    between atoms: _260  and  _263
REMARK  110  A    between atoms: _263  and  _264
REMARK  111  A    between atoms: _264  and  _265
REMARK  112  A    between atoms: _265  and  _266
REMARK  113  A    between atoms: _275  and  _277
REMARK  114  A    between atoms: _277  and  _278
REMARK  115  A    between atoms: _277  and  _280
REMARK  116  A    between atoms: _280  and  _281
REMARK  117  A    between atoms: _283  and  _285
REMARK  118  A    between atoms: _285  and  _286
REMARK  119  A    between atoms: _285  and  _288
REMARK  120  A    between atoms: _288  and  _289
REMARK  121  A    between atoms: _292  and  _294
REMARK  122  A    between atoms: _294  and  _295
REMARK  123  A    between atoms: _294  and  _297
REMARK  124  A    between atoms: _297  and  _298
REMARK  125  A    between atoms: _301  and  _303
REMARK  126  A    between atoms: _303  and  _304
REMARK  127  A    between atoms: _303  and  _306
REMARK  128  A    between atoms: _306  and  _307
REMARK  129  A    between atoms: _307  and  _308
REMARK  130  A    between atoms: _310  and  _312
REMARK  131  A    between atoms: _312  and  _313
REMARK  132  A    between atoms: _312  and  _315
REMARK  133  A    between atoms: _318  and  _320
REMARK  134  A    between atoms: _320  and  _321
REMARK  135  A    between atoms: _320  and  _323
REMARK  136  A    between atoms: _323  and  _324
REMARK  137  A    between atoms: _324  and  _325
REMARK  138  A    between atoms: _328  and  _330
REMARK  139  A    between atoms: _330  and  _331
REMARK  140  A    between atoms: _330  and  _333
REMARK  141  A    between atoms: _333  and  _334
REMARK  142  A    between atoms: _334  and  _335
REMARK  143  A    between atoms: _335  and  _336
REMARK  144  A    between atoms: _336  and  _337
REMARK  145  A    between atoms: _341  and  _343
REMARK  146  A    between atoms: _343  and  _344
REMARK  147  A    between atoms: _343  and  _346
REMARK  148  A    between atoms: _346  and  _347
REMARK  149  A    between atoms: _347  and  _348
REMARK  150  A    between atoms: _348  and  _349
REMARK  151  A    between atoms: _349  and  _350
REMARK  152  A    between atoms: _354  and  _356
REMARK  153  A    between atoms: _356  and  _357
REMARK  154  A    between atoms: _356  and  _359
REMARK  155  A    between atoms: _359  and  _360
REMARK  156  A    between atoms: _366  and  _368
REMARK  157  A    between atoms: _368  and  _369
REMARK  158  A    between atoms: _368  and  _371
REMARK  159  A    between atoms: _371  and  _372
REMARK  160  A    between atoms: _374  and  _376
REMARK  161  A    between atoms: _376  and  _377
REMARK  162  A    between atoms: _376  and  _379
REMARK  163  A    between atoms: _379  and  _380
REMARK  164  A    between atoms: _380  and  _381
REMARK  165  A    between atoms: _381  and  _382
REMARK  166  A    between atoms: _382  and  _383
REMARK  167  A    between atoms: _387  and  _389
REMARK  168  A    between atoms: _389  and  _390
REMARK  169  A    between atoms: _389  and  _392
REMARK  170  A    between atoms: _392  and  _393
REMARK  171  A    between atoms: _399  and  _401
REMARK  172  A    between atoms: _401  and  _402
REMARK  173  A    between atoms: _401  and  _404
REMARK  174  A    between atoms: _404  and  _405
REMARK  175  A    between atoms: _408  and  _410
REMARK  176  A    between atoms: _410  and  _411
REMARK  177  A    between atoms: _410  and  _413
REMARK  178  A    between atoms: _413  and  _414
REMARK  179  A    between atoms: _419  and  _421
REMARK  180  A    between atoms: _421  and  _422
REMARK  181  A    between atoms: _424  and  _426
REMARK  182  A    between atoms: _426  and  _427
REMARK  183  A    between atoms: _426  and  _429
REMARK  184  A    between atoms: _429  and  _430
REMARK                            x       y       z     vdW  Elec       q    Type
REMARK                         _______ _______ _______ _____ _____    ______ ____
ROOT
ATOM      1  CA  ASP A   1       7.956  16.662   6.871  0.00  0.00    +0.144 C 
ENDROOT
BRANCH   1   2
ATOM      2  N   ASP A   1       9.046  16.393   5.952  0.00  0.00    -0.239 NA
ATOM      3  H   ASP A   1       9.835  17.067   5.884  0.00  0.00    +0.142 HD
ENDBRANCH   1   2
BRANCH   1   4
ATOM      4  C   ASP A   1       7.206  17.898   6.413  0.00  0.00    +0.225 C 
ATOM      5  O   ASP A   1       7.800  18.959   6.220  0.00  0.00    -0.287 OA
ENDBRANCH   1   4
BRANCH   1   6
ATOM      6  CB  ASP A   1       8.499  16.830   8.294  0.00  0.00    +0.139 C 
BRANCH   6   7
ATOM      7  CG  ASP A   1       9.253  15.601   8.778  0.00  0.00    +0.367 C 
ATOM      8  OD2 ASP A   1      10.152  15.746   9.634  0.00  0.00    -0.246 OA
ATOM      9  OD1 ASP A   1       8.942  14.483   8.301  0.00  0.00    -0.246 OA
ENDBRANCH   6   7
ENDBRANCH   1   6
TORSDOF 4
REMARK  Name = ../refined-set-2016/3g3r/3g3r_pocket.pdb
REMARK  184 active torsions:
REMARK  status: ('A' for Active; 'I' for Inactive)
REMARK    1  A    between atoms: _1  and  _3
REMARK    2  A    between atoms: _3  and  _4
REMARK    3  A    between atoms: _3  and  _6
REMARK    4  A    between atoms: _6  and  _7
REMARK    5  A    between atoms: _10  and  _12
REMARK    6  A    between atoms: _12  and  _13
REMARK    7  A    between atoms: _12  and  _15
REMARK    8  A    between atoms: _15  and  _16
REMARK    9  A    between atoms: _16  and  _17
REMARK   10  A    between atoms: _17  and  _18
REMARK   11  A    between atoms: _18  and  _19
REMARK   12  A    between atoms: _23  and  _25
REMARK   13  A    between atoms: _25  and  _26
REMARK   14  A    between atoms: _25  and  _28
REMARK   15  A    between atoms: _28  and  _29
REMARK   16  A    between atoms: _39  and  _41
REMARK   17  A    between atoms: _41  and  _42
REMARK   18  A    between atoms: _41  and  _44
REMARK   19  A    between atoms: _44  and  _45
REMARK   20  A    between atoms: _48  and  _50
REMARK   21  A    between atoms: _50  and  _51
REMARK   22  A    between atoms: _50  and  _53
REMARK   23  A    between atoms: _53  and  _54
REMARK   24  A    between atoms: _57  and  _59
REMARK   25  A    between atoms: _59  and  _60
REMARK   26  A    between atoms: _59  and  _62
REMARK   27  A    between atoms: _62  and  _63
REMARK   28  A    between atoms: _65  and  _67
REMARK   29  A    between atoms: _67  and  _68
REMARK   30  A    between atoms: _67  and  _70
REMARK   31  A    between atoms: _70  and  _71
REMARK   32  A    between atoms: _76  and  _77
REMARK   33  A    between atoms: _79  and  _81
REMARK   34  A    between atoms: _81  and  _82
REMARK   35  A    between atoms: _81  and  _84
REMARK   36  A    between atoms: _84  and  _85
REMARK   37  A    between atoms: _85  and  _86
REMARK   38  A    between atoms: _86  and  _87
REMARK   39  A    between atoms: _96  and  _98
REMARK   40  A    between atoms: _98  and  _99
REMARK   41  A    between atoms: _98  and  _101
REMARK   42  A    between atoms: _101  and  _102
REMARK   43  A    between atoms: _102  and  _103
REMARK   44  A    between atoms: _103  and  _104
REMARK   45  A    between atoms: _104  and  _105
REMARK   46  A    between atoms: _109  and  _111
REMARK   47  A    between atoms: _111  and  _112
REMARK   48  A    between atoms: _115  and  _117
REMARK   49  A    between atoms: _117  and  _118
REMARK   50  A    between atoms: _117  and  _120
REMARK   51  A    between atoms: _120  and  _121
REMARK   52  A    between atoms: _121  and  _122
REMARK   53  A    between atoms: _122  and  _123
REMARK   54  A    between atoms: _132  and  _134
REMARK   55  A    between atoms: _134  and  _135
REMARK   56  A    between atoms: _134  and  _137
REMARK   57  A    between atoms: _137  and  _138
REMARK   58  A    between atoms: _138  and  _139
REMARK   59  A    between atoms: _139  and  _140
REMARK   60  A    between atoms: _149  and  _151
REMARK   61  A    between atoms: _151  and  _152
REMARK   62  A    between atoms: _151  and  _154
REMARK   63  A    between atoms: _154  and  _155
REMARK   64  A    between atoms: _160  and  _161
REMARK   65  A    between atoms: _163  and  _165
REMARK   66  A    between atoms: _165  and  _166
REMARK   67  A    between atoms: _165  and  _168
REMARK   68  A    between atoms: _168  and  _169
REMARK   69  A    between atoms: _169  and  _170
REMARK   70  A    between atoms: _173  and  _175
REMARK   71  A    between atoms: _175  and  _176
REMARK   72  A    between atoms: _175  and  _178
REMARK   73  A    between atoms: _178  and  _179
REMARK   74  A    between atoms: _179  and  _180
REMARK   75  A    between atoms: _180  and  _181
REMARK   76  A    between atoms: _181  and  _182
REMARK   77  A    between atoms: _186  and  _188
REMARK   78  A    between atoms: _188  and  _189
REMARK   79  A    between atoms: _188  and  _191
REMARK   80  A    between atoms: _191  and  _192
REMARK   81  A    between atoms: _194  and  _196
REMARK   82  A    between atoms: _196  and  _197
REMARK   83  A    between atoms: _196  and  _199
REMARK   84  A    between atoms: _199  and  _200
REMARK   85  A    between atoms: _200  and  _201
REMARK   86  A    between atoms: _201  and  _202
REMARK   87  A    between atoms: _202  and  _203
REMARK   88  A    between atoms: _207  and  _209
REMARK   89  A    between atoms: _209  and  _210
REMARK   90  A    between atoms: _209  and  _212
REMARK   91  A    between atoms: _212  and  _213
REMARK   92  A    between atoms: _213  and  _214
REMARK   93  A    between atoms: _214  and  _215
REMARK   94  A    between atoms: _224  and  _226
REMARK   95  A    between atoms: _226  and  _227
REMARK   96  A    between atoms: _226  and  _229
REMARK   97  A    between atoms: _229  and  _230
REMARK   98  A    between atoms: _232  and  _234
REMARK   99  A    between atoms: _234  and  _235
REMARK  100  A    between atoms: _234  and  _237
REMARK  101  A    between atoms: _237  and  _238
REMARK  102  A    between atoms: _244  and  _246
REMARK  103  A    between atoms: _246  and  _247
REMARK  104  A    between atoms: _246  and  _249
REMARK  105  A    between atoms: _249  and  _250
REMARK  106  A    between atoms: _255  and  _256
REMARK  107  A    between atoms: _258  and  _260
REMARK  108  A    between atoms: _260  and  _261
REMARK  109  A    between atoms: _260  and  _263
REMARK  110  A    between atoms: _263  and  _264
REMARK  111  A    between atoms: _264  and  _265
REMARK  112  A    between atoms: _265  and  _266
REMARK  113  A    between atoms: _275  and  _277
REMARK  114  A    between atoms: _277  and  _278
REMARK  115  A    between atoms: _277  and  _280
REMARK  116  A    between atoms: _280  and  _281
REMARK  117  A    between atoms: _283  and  _285
REMARK  118  A    between atoms: _285  and  _286
REMARK  119  A    between atoms: _285  and  _288
REMARK  120  A    between atoms: _288  and  _289
REMARK  121  A    between atoms: _292  and  _294
REMARK  122  A    between atoms: _294  and  _295
REMARK  123  A    between atoms: _294  and  _297
REMARK  124  A    between atoms: _297  and  _298
REMARK  125  A    between atoms: _301  and  _303
REMARK  126  A    between atoms: _303  and  _304
REMARK  127  A    between atoms: _303  and  _306
REMARK  128  A    between atoms: _306  and  _307
REMARK  129  A    between atoms: _307  and  _308
REMARK  130  A    between atoms: _310  and  _312
REMARK  131  A    between atoms: _312  and  _313
REMARK  132  A    between atoms: _312  and  _315
REMARK  133  A    between atoms: _318  and  _320
REMARK  134  A    between atoms: _320  and  _321
REMARK  135  A    between atoms: _320  and  _323
REMARK  136  A    between atoms: _323  and  _324
REMARK  137  A    between atoms: _324  and  _325
REMARK  138  A    between atoms: _328  and  _330
REMARK  139  A    between atoms: _330  and  _331
REMARK  140  A    between atoms: _330  and  _333
REMARK  141  A    between atoms: _333  and  _334
REMARK  142  A    between atoms: _334  and  _335
REMARK  143  A    between atoms: _335  and  _336
REMARK  144  A    between atoms: _336  and  _337
REMARK  145  A    between atoms: _341  and  _343
REMARK  146  A    between atoms: _343  and  _344
REMARK  147  A    between atoms: _343  and  _346
REMARK  148  A    between atoms: _346  and  _347
REMARK  149  A    between atoms: _347  and  _348
REMARK  150  A    between atoms: _348  and  _349
REMARK  151  A    between atoms: _349  and  _350
REMARK  152  A    between atoms: _354  and  _356
REMARK  153  A    between atoms: _356  and  _357
REMARK  154  A    between atoms: _356  and  _359
REMARK  155  A    between atoms: _359  and  _360
REMARK  156  A    between atoms: _366  and  _368
REMARK  157  A    between atoms: _368  and  _369
REMARK  158  A    between atoms: _368  and  _371
REMARK  159  A    between atoms: _371  and  _372
REMARK  160  A    between atoms: _374  and  _376
REMARK  161  A    between atoms: _376  and  _377
REMARK  162  A    between atoms: _376  and  _379
REMARK  163  A    between atoms: _379  and  _380
REMARK  164  A    between atoms: _380  and  _381
REMARK  165  A    between atoms: _381  and  _382
REMARK  166  A    between atoms: _382  and  _383
REMARK  167  A    between atoms: _387  and  _389
REMARK  168  A    between atoms: _389  and  _390
REMARK  169  A    between atoms: _389  and  _392
REMARK  170  A    between atoms: _392  and  _393
REMARK  171  A    between atoms: _399  and  _401
REMARK  172  A    between atoms: _401  and  _402
REMARK  173  A    between atoms: _401  and  _404
REMARK  174  A    between atoms: _404  and  _405
REMARK  175  A    between atoms: _408  and  _410
REMARK  176  A    between atoms: _410  and  _411
REMARK  177  A    between atoms: _410  and  _413
REMARK  178  A    between atoms: _413  and  _414
REMARK  179  A    between atoms: _419  and  _421
REMARK  180  A    between atoms: _421  and  _422
REMARK  181  A    between atoms: _424  and  _426
REMARK  182  A    between atoms: _426  and  _427
REMARK  183  A    between atoms: _426  and  _429
REMARK  184  A    between atoms: _429  and  _430
REMARK                            x       y       z     vdW  Elec       q    Type
REMARK                         _______ _______ _______ _____ _____    ______ ____
ROOT
ATOM      1  CA  LEU A   1       4.478  20.934  10.414  0.00  0.00    +0.133 C 
ENDROOT
BRANCH   1   2
ATOM      2  N   LEU A   1       3.849  20.809   9.106  0.00  0.00    -0.239 NA
ATOM      3  H   LEU A   1       4.429  20.936   8.252  0.00  0.00    +0.142 HD
ENDBRANCH   1   2
BRANCH   1   4
ATOM      4  C   LEU A   1       3.768  21.971  11.267  0.00  0.00    +0.224 C 
ATOM      5  O   LEU A   1       3.672  23.138  10.898  0.00  0.00    -0.287 OA
ENDBRANCH   1   4
BRANCH   1   6
ATOM      6  CB  LEU A   1       5.942  21.334  10.268  0.00  0.00    +0.025 C 
BRANCH   6   7
ATOM      7  CG  LEU A   1       6.635  21.617  11.602  0.00  0.00    +0.002 C 
ATOM      8  CD2 LEU A   1       6.568  20.404  12.525  0.00  0.00    +0.000 C 
ATOM      9  CD1 LEU A   1       8.087  22.072  11.392  0.00  0.00    +0.000 C 
ENDBRANCH   6   7
ENDBRANCH   1   6
TORSDOF 4
REMARK  Name = ../refined-set-2016/3g3r/3g3r_pocket.pdb
REMARK  184 active torsions:
REMARK  status: ('A' for Active; 'I' for Inactive)
REMARK    1  A    between atoms: _1  and  _3
REMARK    2  A    between atoms: _3  and  _4
REMARK    3  A    between atoms: _3  and  _6
REMARK    4  A    between atoms: _6  and  _7
REMARK    5  A    between atoms: _10  and  _12
REMARK    6  A    between atoms: _12  and  _13
REMARK    7  A    between atoms: _12  and  _15
REMARK    8  A    between atoms: _15  and  _16
REMARK    9  A    between atoms: _16  and  _17
REMARK   10  A    between atoms: _17  and  _18
REMARK   11  A    between atoms: _18  and  _19
REMARK   12  A    between atoms: _23  and  _25
REMARK   13  A    between atoms: _25  and  _26
REMARK   14  A    between atoms: _25  and  _28
REMARK   15  A    between atoms: _28  and  _29
REMARK   16  A    between atoms: _39  and  _41
REMARK   17  A    between atoms: _41  and  _42
REMARK   18  A    between atoms: _41  and  _44
REMARK   19  A    between atoms: _44  and  _45
REMARK   20  A    between atoms: _48  and  _50
REMARK   21  A    between atoms: _50  and  _51
REMARK   22  A    between atoms: _50  and  _53
REMARK   23  A    between atoms: _53  and  _54
REMARK   24  A    between atoms: _57  and  _59
REMARK   25  A    between atoms: _59  and  _60
REMARK   26  A    between atoms: _59  and  _62
REMARK   27  A    between atoms: _62  and  _63
REMARK   28  A    between atoms: _65  and  _67
REMARK   29  A    between atoms: _67  and  _68
REMARK   30  A    between atoms: _67  and  _70
REMARK   31  A    between atoms: _70  and  _71
REMARK   32  A    between atoms: _76  and  _77
REMARK   33  A    between atoms: _79  and  _81
REMARK   34  A    between atoms: _81  and  _82
REMARK   35  A    between atoms: _81  and  _84
REMARK   36  A    between atoms: _84  and  _85
REMARK   37  A    between atoms: _85  and  _86
REMARK   38  A    between atoms: _86  and  _87
REMARK   39  A    between atoms: _96  and  _98
REMARK   40  A    between atoms: _98  and  _99
REMARK   41  A    between atoms: _98  and  _101
REMARK   42  A    between atoms: _101  and  _102
REMARK   43  A    between atoms: _102  and  _103
REMARK   44  A    between atoms: _103  and  _104
REMARK   45  A    between atoms: _104  and  _105
REMARK   46  A    between atoms: _109  and  _111
REMARK   47  A    between atoms: _111  and  _112
REMARK   48  A    between atoms: _115  and  _117
REMARK   49  A    between atoms: _117  and  _118
REMARK   50  A    between atoms: _117  and  _120
REMARK   51  A    between atoms: _120  and  _121
REMARK   52  A    between atoms: _121  and  _122
REMARK   53  A    between atoms: _122  and  _123
REMARK   54  A    between atoms: _132  and  _134
REMARK   55  A    between atoms: _134  and  _135
REMARK   56  A    between atoms: _134  and  _137
REMARK   57  A    between atoms: _137  and  _138
REMARK   58  A    between atoms: _138  and  _139
REMARK   59  A    between atoms: _139  and  _140
REMARK   60  A    between atoms: _149  and  _151
REMARK   61  A    between atoms: _151  and  _152
REMARK   62  A    between atoms: _151  and  _154
REMARK   63  A    between atoms: _154  and  _155
REMARK   64  A    between atoms: _160  and  _161
REMARK   65  A    between atoms: _163  and  _165
REMARK   66  A    between atoms: _165  and  _166
REMARK   67  A    between atoms: _165  and  _168
REMARK   68  A    between atoms: _168  and  _169
REMARK   69  A    between atoms: _169  and  _170
REMARK   70  A    between atoms: _173  and  _175
REMARK   71  A    between atoms: _175  and  _176
REMARK   72  A    between atoms: _175  and  _178
REMARK   73  A    between atoms: _178  and  _179
REMARK   74  A    between atoms: _179  and  _180
REMARK   75  A    between atoms: _180  and  _181
REMARK   76  A    between atoms: _181  and  _182
REMARK   77  A    between atoms: _186  and  _188
REMARK   78  A    between atoms: _188  and  _189
REMARK   79  A    between atoms: _188  and  _191
REMARK   80  A    between atoms: _191  and  _192
REMARK   81  A    between atoms: _194  and  _196
REMARK   82  A    between atoms: _196  and  _197
REMARK   83  A    between atoms: _196  and  _199
REMARK   84  A    between atoms: _199  and  _200
REMARK   85  A    between atoms: _200  and  _201
REMARK   86  A    between atoms: _201  and  _202
REMARK   87  A    between atoms: _202  and  _203
REMARK   88  A    between atoms: _207  and  _209
REMARK   89  A    between atoms: _209  and  _210
REMARK   90  A    between atoms: _209  and  _212
REMARK   91  A    between atoms: _212  and  _213
REMARK   92  A    between atoms: _213  and  _214
REMARK   93  A    between atoms: _214  and  _215
REMARK   94  A    between atoms: _224  and  _226
REMARK   95  A    between atoms: _226  and  _227
REMARK   96  A    between atoms: _226  and  _229
REMARK   97  A    between atoms: _229  and  _230
REMARK   98  A    between atoms: _232  and  _234
REMARK   99  A    between atoms: _234  and  _235
REMARK  100  A    between atoms: _234  and  _237
REMARK  101  A    between atoms: _237  and  _238
REMARK  102  A    between atoms: _244  and  _246
REMARK  103  A    between atoms: _246  and  _247
REMARK  104  A    between atoms: _246  and  _249
REMARK  105  A    between atoms: _249  and  _250
REMARK  106  A    between atoms: _255  and  _256
REMARK  107  A    between atoms: _258  and  _260
REMARK  108  A    between atoms: _260  and  _261
REMARK  109  A    between atoms: _260  and  _263
REMARK  110  A    between atoms: _263  and  _264
REMARK  111  A    between atoms: _264  and  _265
REMARK  112  A    between atoms: _265  and  _266
REMARK  113  A    between atoms: _275  and  _277
REMARK  114  A    between atoms: _277  and  _278
REMARK  115  A    between atoms: _277  and  _280
REMARK  116  A    between atoms: _280  and  _281
REMARK  117  A    between atoms: _283  and  _285
REMARK  118  A    between atoms: _285  and  _286
REMARK  119  A    between atoms: _285  and  _288
REMARK  120  A    between atoms: _288  and  _289
REMARK  121  A    between atoms: _292  and  _294
REMARK  122  A    between atoms: _294  and  _295
REMARK  123  A    between atoms: _294  and  _297
REMARK  124  A    between atoms: _297  and  _298
REMARK  125  A    between atoms: _301  and  _303
REMARK  126  A    between atoms: _303  and  _304
REMARK  127  A    between atoms: _303  and  _306
REMARK  128  A    between atoms: _306  and  _307
REMARK  129  A    between atoms: _307  and  _308
REMARK  130  A    between atoms: _310  and  _312
REMARK  131  A    between atoms: _312  and  _313
REMARK  132  A    between atoms: _312  and  _315
REMARK  133  A    between atoms: _318  and  _320
REMARK  134  A    between atoms: _320  and  _321
REMARK  135  A    between atoms: _320  and  _323
REMARK  136  A    between atoms: _323  and  _324
REMARK  137  A    between atoms: _324  and  _325
REMARK  138  A    between atoms: _328  and  _330
REMARK  139  A    between atoms: _330  and  _331
REMARK  140  A    between atoms: _330  and  _333
REMARK  141  A    between atoms: _333  and  _334
REMARK  142  A    between atoms: _334  and  _335
REMARK  143  A    between atoms: _335  and  _336
REMARK  144  A    between atoms: _336  and  _337
REMARK  145  A    between atoms: _341  and  _343
REMARK  146  A    between atoms: _343  and  _344
REMARK  147  A    between atoms: _343  and  _346
REMARK  148  A    between atoms: _346  and  _347
REMARK  149  A    between atoms: _347  and  _348
REMARK  150  A    between atoms: _348  and  _349
REMARK  151  A    between atoms: _349  and  _350
REMARK  152  A    between atoms: _354  and  _356
REMARK  153  A    between atoms: _356  and  _357
REMARK  154  A    between atoms: _356  and  _359
REMARK  155  A    between atoms: _359  and  _360
REMARK  156  A    between atoms: _366  and  _368
REMARK  157  A    between atoms: _368  and  _369
REMARK  158  A    between atoms: _368  and  _371
REMARK  159  A    between atoms: _371  and  _372
REMARK  160  A    between atoms: _374  and  _376
REMARK  161  A    between atoms: _376  and  _377
REMARK  162  A    between atoms: _376  and  _379
REMARK  163  A    between atoms: _379  and  _380
REMARK  164  A    between atoms: _380  and  _381
REMARK  165  A    between atoms: _381  and  _382
REMARK  166  A    between atoms: _382  and  _383
REMARK  167  A    between atoms: _387  and  _389
REMARK  168  A    between atoms: _389  and  _390
REMARK  169  A    between atoms: _389  and  _392
REMARK  170  A    between atoms: _392  and  _393
REMARK  171  A    between atoms: _399  and  _401
REMARK  172  A    between atoms: _401  and  _402
REMARK  173  A    between atoms: _401  and  _404
REMARK  174  A    between atoms: _404  and  _405
REMARK  175  A    between atoms: _408  and  _410
REMARK  176  A    between atoms: _410  and  _411
REMARK  177  A    between atoms: _410  and  _413
REMARK  178  A    between atoms: _413  and  _414
REMARK  179  A    between atoms: _419  and  _421
REMARK  180  A    between atoms: _421  and  _422
REMARK  181  A    between atoms: _424  and  _426
REMARK  182  A    between atoms: _426  and  _427
REMARK  183  A    between atoms: _426  and  _429
REMARK  184  A    between atoms: _429  and  _430
REMARK                            x       y       z     vdW  Elec       q    Type
REMARK                         _______ _______ _______ _____ _____    ______ ____
ROOT
ATOM      1  CA  MET A   1       3.294  23.164  16.946  0.00  0.00    +0.134 C 
ENDROOT
BRANCH   1   2
ATOM      2  N   MET A   1       3.064  23.286  15.519  0.00  0.00    -0.239 NA
ATOM      3  H   MET A   1       2.948  24.230  15.099  0.00  0.00    +0.142 HD
ENDBRANCH   1   2
BRANCH   1   4
ATOM      4  C   MET A   1       2.099  23.723  17.695  0.00  0.00    +0.224 C 
ATOM      5  O   MET A   1       1.597  24.794  17.359  0.00  0.00    -0.287 OA
ENDBRANCH   1   4
BRANCH   1   6
ATOM      6  CB  MET A   1       4.586  23.879  17.383  0.00  0.00    +0.037 C 
BRANCH   6   7
ATOM      7  CG  MET A   1       5.851  23.334  16.724  0.00  0.00    +0.059 C 
BRANCH   7   8
ATOM      8  SD  MET A   1       6.122  24.077  15.105  0.00  0.00    -0.139 S 
ATOM      9  CE  MET A   1       7.757  23.456  14.714  0.00  0.00    +0.069 C 
ENDBRANCH   7   8
ENDBRANCH   6   7
ENDBRANCH   1   6
TORSDOF 5
REMARK  Name = ../refined-set-2016/3g3r/3g3r_pocket.pdb
REMARK  184 active torsions:
REMARK  status: ('A' for Active; 'I' for Inactive)
REMARK    1  A    between atoms: _1  and  _3
REMARK    2  A    between atoms: _3  and  _4
REMARK    3  A    between atoms: _3  and  _6
REMARK    4  A    between atoms: _6  and  _7
REMARK    5  A    between atoms: _10  and  _12
REMARK    6  A    between atoms: _12  and  _13
REMARK    7  A    between atoms: _12  and  _15
REMARK    8  A    between atoms: _15  and  _16
REMARK    9  A    between atoms: _16  and  _17
REMARK   10  A    between atoms: _17  and  _18
REMARK   11  A    between atoms: _18  and  _19
REMARK   12  A    between atoms: _23  and  _25
REMARK   13  A    between atoms: _25  and  _26
REMARK   14  A    between atoms: _25  and  _28
REMARK   15  A    between atoms: _28  and  _29
REMARK   16  A    between atoms: _39  and  _41
REMARK   17  A    between atoms: _41  and  _42
REMARK   18  A    between atoms: _41  and  _44
REMARK   19  A    between atoms: _44  and  _45
REMARK   20  A    between atoms: _48  and  _50
REMARK   21  A    between atoms: _50  and  _51
REMARK   22  A    between atoms: _50  and  _53
REMARK   23  A    between atoms: _53  and  _54
REMARK   24  A    between atoms: _57  and  _59
REMARK   25  A    between atoms: _59  and  _60
REMARK   26  A    between atoms: _59  and  _62
REMARK   27  A    between atoms: _62  and  _63
REMARK   28  A    between atoms: _65  and  _67
REMARK   29  A    between atoms: _67  and  _68
REMARK   30  A    between atoms: _67  and  _70
REMARK   31  A    between atoms: _70  and  _71
REMARK   32  A    between atoms: _76  and  _77
REMARK   33  A    between atoms: _79  and  _81
REMARK   34  A    between atoms: _81  and  _82
REMARK   35  A    between atoms: _81  and  _84
REMARK   36  A    between atoms: _84  and  _85
REMARK   37  A    between atoms: _85  and  _86
REMARK   38  A    between atoms: _86  and  _87
REMARK   39  A    between atoms: _96  and  _98
REMARK   40  A    between atoms: _98  and  _99
REMARK   41  A    between atoms: _98  and  _101
REMARK   42  A    between atoms: _101  and  _102
REMARK   43  A    between atoms: _102  and  _103
REMARK   44  A    between atoms: _103  and  _104
REMARK   45  A    between atoms: _104  and  _105
REMARK   46  A    between atoms: _109  and  _111
REMARK   47  A    between atoms: _111  and  _112
REMARK   48  A    between atoms: _115  and  _117
REMARK   49  A    between atoms: _117  and  _118
REMARK   50  A    between atoms: _117  and  _120
REMARK   51  A    between atoms: _120  and  _121
REMARK   52  A    between atoms: _121  and  _122
REMARK   53  A    between atoms: _122  and  _123
REMARK   54  A    between atoms: _132  and  _134
REMARK   55  A    between atoms: _134  and  _135
REMARK   56  A    between atoms: _134  and  _137
REMARK   57  A    between atoms: _137  and  _138
REMARK   58  A    between atoms: _138  and  _139
REMARK   59  A    between atoms: _139  and  _140
REMARK   60  A    between atoms: _149  and  _151
REMARK   61  A    between atoms: _151  and  _152
REMARK   62  A    between atoms: _151  and  _154
REMARK   63  A    between atoms: _154  and  _155
REMARK   64  A    between atoms: _160  and  _161
REMARK   65  A    between atoms: _163  and  _165
REMARK   66  A    between atoms: _165  and  _166
REMARK   67  A    between atoms: _165  and  _168
REMARK   68  A    between atoms: _168  and  _169
REMARK   69  A    between atoms: _169  and  _170
REMARK   70  A    between atoms: _173  and  _175
REMARK   71  A    between atoms: _175  and  _176
REMARK   72  A    between atoms: _175  and  _178
REMARK   73  A    between atoms: _178  and  _179
REMARK   74  A    between atoms: _179  and  _180
REMARK   75  A    between atoms: _180  and  _181
REMARK   76  A    between atoms: _181  and  _182
REMARK   77  A    between atoms: _186  and  _188
REMARK   78  A    between atoms: _188  and  _189
REMARK   79  A    between atoms: _188  and  _191
REMARK   80  A    between atoms: _191  and  _192
REMARK   81  A    between atoms: _194  and  _196
REMARK   82  A    between atoms: _196  and  _197
REMARK   83  A    between atoms: _196  and  _199
REMARK   84  A    between atoms: _199  and  _200
REMARK   85  A    between atoms: _200  and  _201
REMARK   86  A    between atoms: _201  and  _202
REMARK   87  A    between atoms: _202  and  _203
REMARK   88  A    between atoms: _207  and  _209
REMARK   89  A    between atoms: _209  and  _210
REMARK   90  A    between atoms: _209  and  _212
REMARK   91  A    between atoms: _212  and  _213
REMARK   92  A    between atoms: _213  and  _214
REMARK   93  A    between atoms: _214  and  _215
REMARK   94  A    between atoms: _224  and  _226
REMARK   95  A    between atoms: _226  and  _227
REMARK   96  A    between atoms: _226  and  _229
REMARK   97  A    between atoms: _229  and  _230
REMARK   98  A    between atoms: _232  and  _234
REMARK   99  A    between atoms: _234  and  _235
REMARK  100  A    between atoms: _234  and  _237
REMARK  101  A    between atoms: _237  and  _238
REMARK  102  A    between atoms: _244  and  _246
REMARK  103  A    between atoms: _246  and  _247
REMARK  104  A    between atoms: _246  and  _249
REMARK  105  A    between atoms: _249  and  _250
REMARK  106  A    between atoms: _255  and  _256
REMARK  107  A    between atoms: _258  and  _260
REMARK  108  A    between atoms: _260  and  _261
REMARK  109  A    between atoms: _260  and  _263
REMARK  110  A    between atoms: _263  and  _264
REMARK  111  A    between atoms: _264  and  _265
REMARK  112  A    between atoms: _265  and  _266
REMARK  113  A    between atoms: _275  and  _277
REMARK  114  A    between atoms: _277  and  _278
REMARK  115  A    between atoms: _277  and  _280
REMARK  116  A    between atoms: _280  and  _281
REMARK  117  A    between atoms: _283  and  _285
REMARK  118  A    between atoms: _285  and  _286
REMARK  119  A    between atoms: _285  and  _288
REMARK  120  A    between atoms: _288  and  _289
REMARK  121  A    between atoms: _292  and  _294
REMARK  122  A    between atoms: _294  and  _295
REMARK  123  A    between atoms: _294  and  _297
REMARK  124  A    between atoms: _297  and  _298
REMARK  125  A    between atoms: _301  and  _303
REMARK  126  A    between atoms: _303  and  _304
REMARK  127  A    between atoms: _303  and  _306
REMARK  128  A    between atoms: _306  and  _307
REMARK  129  A    between atoms: _307  and  _308
REMARK  130  A    between atoms: _310  and  _312
REMARK  131  A    between atoms: _312  and  _313
REMARK  132  A    between atoms: _312  and  _315
REMARK  133  A    between atoms: _318  and  _320
REMARK  134  A    between atoms: _320  and  _321
REMARK  135  A    between atoms: _320  and  _323
REMARK  136  A    between atoms: _323  and  _324
REMARK  137  A    between atoms: _324  and  _325
REMARK  138  A    between atoms: _328  and  _330
REMARK  139  A    between atoms: _330  and  _331
REMARK  140  A    between atoms: _330  and  _333
REMARK  141  A    between atoms: _333  and  _334
REMARK  142  A    between atoms: _334  and  _335
REMARK  143  A    between atoms: _335  and  _336
REMARK  144  A    between atoms: _336  and  _337
REMARK  145  A    between atoms: _341  and  _343
REMARK  146  A    between atoms: _343  and  _344
REMARK  147  A    between atoms: _343  and  _346
REMARK  148  A    between atoms: _346  and  _347
REMARK  149  A    between atoms: _347  and  _348
REMARK  150  A    between atoms: _348  and  _349
REMARK  151  A    between atoms: _349  and  _350
REMARK  152  A    between atoms: _354  and  _356
REMARK  153  A    between atoms: _356  and  _357
REMARK  154  A    between atoms: _356  and  _359
REMARK  155  A    between atoms: _359  and  _360
REMARK  156  A    between atoms: _366  and  _368
REMARK  157  A    between atoms: _368  and  _369
REMARK  158  A    between atoms: _368  and  _371
REMARK  159  A    between atoms: _371  and  _372
REMARK  160  A    between atoms: _374  and  _376
REMARK  161  A    between atoms: _376  and  _377
REMARK  162  A    between atoms: _376  and  _379
REMARK  163  A    between atoms: _379  and  _380
REMARK  164  A    between atoms: _380  and  _381
REMARK  165  A    between atoms: _381  and  _382
REMARK  166  A    between atoms: _382  and  _383
REMARK  167  A    between atoms: _387  and  _389
REMARK  168  A    between atoms: _389  and  _390
REMARK  169  A    between atoms: _389  and  _392
REMARK  170  A    between atoms: _392  and  _393
REMARK  171  A    between atoms: _399  and  _401
REMARK  172  A    between atoms: _401  and  _402
REMARK  173  A    between atoms: _401  and  _404
REMARK  174  A    between atoms: _404  and  _405
REMARK  175  A    between atoms: _408  and  _410
REMARK  176  A    between atoms: _410  and  _411
REMARK  177  A    between atoms: _410  and  _413
REMARK  178  A    between atoms: _413  and  _414
REMARK  179  A    between atoms: _419  and  _421
REMARK  180  A    between atoms: _421  and  _422
REMARK  181  A    between atoms: _424  and  _426
REMARK  182  A    between atoms: _426  and  _427
REMARK  183  A    between atoms: _426  and  _429
REMARK  184  A    between atoms: _429  and  _430
REMARK                            x       y       z     vdW  Elec       q    Type
REMARK                         _______ _______ _______ _____ _____    ______ ____
ROOT
ATOM      1  CA  VAL A   1      11.575  20.110   6.951  0.00  0.00    +0.133 C 
ENDROOT
BRANCH   1   2
ATOM      2  CB  VAL A   1      11.591  20.065   8.489  0.00  0.00    +0.023 C 
ATOM      3  CG2 VAL A   1      11.143  21.414   9.055  0.00  0.00    +0.002 C 
ATOM      4  CG1 VAL A   1      12.987  19.724   8.997  0.00  0.00    +0.002 C 
ENDBRANCH   1   2
BRANCH   1   5
ATOM      5  N   VAL A   1      10.254  20.410   6.419  0.00  0.00    -0.239 NA
ATOM      6  H   VAL A   1       9.451  19.789   6.645  0.00  0.00    +0.142 HD
ENDBRANCH   1   5
BRANCH   1   7
ATOM      7  C   VAL A   1      12.094  18.810   6.349  0.00  0.00    +0.224 C 
ATOM      8  O   VAL A   1      11.425  17.769   6.380  0.00  0.00    -0.287 OA
ENDBRANCH   1   7
TORSDOF 3
REMARK  Name = ../refined-set-2016/3g3r/3g3r_pocket.pdb
REMARK  184 active torsions:
REMARK  status: ('A' for Active; 'I' for Inactive)
REMARK    1  A    between atoms: _1  and  _3
REMARK    2  A    between atoms: _3  and  _4
REMARK    3  A    between atoms: _3  and  _6
REMARK    4  A    between atoms: _6  and  _7
REMARK    5  A    between atoms: _10  and  _12
REMARK    6  A    between atoms: _12  and  _13
REMARK    7  A    between atoms: _12  and  _15
REMARK    8  A    between atoms: _15  and  _16
REMARK    9  A    between atoms: _16  and  _17
REMARK   10  A    between atoms: _17  and  _18
REMARK   11  A    between atoms: _18  and  _19
REMARK   12  A    between atoms: _23  and  _25
REMARK   13  A    between atoms: _25  and  _26
REMARK   14  A    between atoms: _25  and  _28
REMARK   15  A    between atoms: _28  and  _29
REMARK   16  A    between atoms: _39  and  _41
REMARK   17  A    between atoms: _41  and  _42
REMARK   18  A    between atoms: _41  and  _44
REMARK   19  A    between atoms: _44  and  _45
REMARK   20  A    between atoms: _48  and  _50
REMARK   21  A    between atoms: _50  and  _51
REMARK   22  A    between atoms: _50  and  _53
REMARK   23  A    between atoms: _53  and  _54
REMARK   24  A    between atoms: _57  and  _59
REMARK   25  A    between atoms: _59  and  _60
REMARK   26  A    between atoms: _59  and  _62
REMARK   27  A    between atoms: _62  and  _63
REMARK   28  A    between atoms: _65  and  _67
REMARK   29  A    between atoms: _67  and  _68
REMARK   30  A    between atoms: _67  and  _70
REMARK   31  A    between atoms: _70  and  _71
REMARK   32  A    between atoms: _76  and  _77
REMARK   33  A    between atoms: _79  and  _81
REMARK   34  A    between atoms: _81  and  _82
REMARK   35  A    between atoms: _81  and  _84
REMARK   36  A    between atoms: _84  and  _85
REMARK   37  A    between atoms: _85  and  _86
REMARK   38  A    between atoms: _86  and  _87
REMARK   39  A    between atoms: _96  and  _98
REMARK   40  A    between atoms: _98  and  _99
REMARK   41  A    between atoms: _98  and  _101
REMARK   42  A    between atoms: _101  and  _102
REMARK   43  A    between atoms: _102  and  _103
REMARK   44  A    between atoms: _103  and  _104
REMARK   45  A    between atoms: _104  and  _105
REMARK   46  A    between atoms: _109  and  _111
REMARK   47  A    between atoms: _111  and  _112
REMARK   48  A    between atoms: _115  and  _117
REMARK   49  A    between atoms: _117  and  _118
REMARK   50  A    between atoms: _117  and  _120
REMARK   51  A    between atoms: _120  and  _121
REMARK   52  A    between atoms: _121  and  _122
REMARK   53  A    between atoms: _122  and  _123
REMARK   54  A    between atoms: _132  and  _134
REMARK   55  A    between atoms: _134  and  _135
REMARK   56  A    between atoms: _134  and  _137
REMARK   57  A    between atoms: _137  and  _138
REMARK   58  A    between atoms: _138  and  _139
REMARK   59  A    between atoms: _139  and  _140
REMARK   60  A    between atoms: _149  and  _151
REMARK   61  A    between atoms: _151  and  _152
REMARK   62  A    between atoms: _151  and  _154
REMARK   63  A    between atoms: _154  and  _155
REMARK   64  A    between atoms: _160  and  _161
REMARK   65  A    between atoms: _163  and  _165
REMARK   66  A    between atoms: _165  and  _166
REMARK   67  A    between atoms: _165  and  _168
REMARK   68  A    between atoms: _168  and  _169
REMARK   69  A    between atoms: _169  and  _170
REMARK   70  A    between atoms: _173  and  _175
REMARK   71  A    between atoms: _175  and  _176
REMARK   72  A    between atoms: _175  and  _178
REMARK   73  A    between atoms: _178  and  _179
REMARK   74  A    between atoms: _179  and  _180
REMARK   75  A    between atoms: _180  and  _181
REMARK   76  A    between atoms: _181  and  _182
REMARK   77  A    between atoms: _186  and  _188
REMARK   78  A    between atoms: _188  and  _189
REMARK   79  A    between atoms: _188  and  _191
REMARK   80  A    between atoms: _191  and  _192
REMARK   81  A    between atoms: _194  and  _196
REMARK   82  A    between atoms: _196  and  _197
REMARK   83  A    between atoms: _196  and  _199
REMARK   84  A    between atoms: _199  and  _200
REMARK   85  A    between atoms: _200  and  _201
REMARK   86  A    between atoms: _201  and  _202
REMARK   87  A    between atoms: _202  and  _203
REMARK   88  A    between atoms: _207  and  _209
REMARK   89  A    between atoms: _209  and  _210
REMARK   90  A    between atoms: _209  and  _212
REMARK   91  A    between atoms: _212  and  _213
REMARK   92  A    between atoms: _213  and  _214
REMARK   93  A    between atoms: _214  and  _215
REMARK   94  A    between atoms: _224  and  _226
REMARK   95  A    between atoms: _226  and  _227
REMARK   96  A    between atoms: _226  and  _229
REMARK   97  A    between atoms: _229  and  _230
REMARK   98  A    between atoms: _232  and  _234
REMARK   99  A    between atoms: _234  and  _235
REMARK  100  A    between atoms: _234  and  _237
REMARK  101  A    between atoms: _237  and  _238
REMARK  102  A    between atoms: _244  and  _246
REMARK  103  A    between atoms: _246  and  _247
REMARK  104  A    between atoms: _246  and  _249
REMARK  105  A    between atoms: _249  and  _250
REMARK  106  A    between atoms: _255  and  _256
REMARK  107  A    between atoms: _258  and  _260
REMARK  108  A    between atoms: _260  and  _261
REMARK  109  A    between atoms: _260  and  _263
REMARK  110  A    between atoms: _263  and  _264
REMARK  111  A    between atoms: _264  and  _265
REMARK  112  A    between atoms: _265  and  _266
REMARK  113  A    between atoms: _275  and  _277
REMARK  114  A    between atoms: _277  and  _278
REMARK  115  A    between atoms: _277  and  _280
REMARK  116  A    between atoms: _280  and  _281
REMARK  117  A    between atoms: _283  and  _285
REMARK  118  A    between atoms: _285  and  _286
REMARK  119  A    between atoms: _285  and  _288
REMARK  120  A    between atoms: _288  and  _289
REMARK  121  A    between atoms: _292  and  _294
REMARK  122  A    between atoms: _294  and  _295
REMARK  123  A    between atoms: _294  and  _297
REMARK  124  A    between atoms: _297  and  _298
REMARK  125  A    between atoms: _301  and  _303
REMARK  126  A    between atoms: _303  and  _304
REMARK  127  A    between atoms: _303  and  _306
REMARK  128  A    between atoms: _306  and  _307
REMARK  129  A    between atoms: _307  and  _308
REMARK  130  A    between atoms: _310  and  _312
REMARK  131  A    between atoms: _312  and  _313
REMARK  132  A    between atoms: _312  and  _315
REMARK  133  A    between atoms: _318  and  _320
REMARK  134  A    between atoms: _320  and  _321
REMARK  135  A    between atoms: _320  and  _323
REMARK  136  A    between atoms: _323  and  _324
REMARK  137  A    between atoms: _324  and  _325
REMARK  138  A    between atoms: _328  and  _330
REMARK  139  A    between atoms: _330  and  _331
REMARK  140  A    between atoms: _330  and  _333
REMARK  141  A    between atoms: _333  and  _334
REMARK  142  A    between atoms: _334  and  _335
REMARK  143  A    between atoms: _335  and  _336
REMARK  144  A    between atoms: _336  and  _337
REMARK  145  A    between atoms: _341  and  _343
REMARK  146  A    between atoms: _343  and  _344
REMARK  147  A    between atoms: _343  and  _346
REMARK  148  A    between atoms: _346  and  _347
REMARK  149  A    between atoms: _347  and  _348
REMARK  150  A    between atoms: _348  and  _349
REMARK  151  A    between atoms: _349  and  _350
REMARK  152  A    between atoms: _354  and  _356
REMARK  153  A    between atoms: _356  and  _357
REMARK  154  A    between atoms: _356  and  _359
REMARK  155  A    between atoms: _359  and  _360
REMARK  156  A    between atoms: _366  and  _368
REMARK  157  A    between atoms: _368  and  _369
REMARK  158  A    between atoms: _368  and  _371
REMARK  159  A    between atoms: _371  and  _372
REMARK  160  A    between atoms: _374  and  _376
REMARK  161  A    between atoms: _376  and  _377
REMARK  162  A    between atoms: _376  and  _379
REMARK  163  A    between atoms: _379  and  _380
REMARK  164  A    between atoms: _380  and  _381
REMARK  165  A    between atoms: _381  and  _382
REMARK  166  A    between atoms: _382  and  _383
REMARK  167  A    between atoms: _387  and  _389
REMARK  168  A    between atoms: _389  and  _390
REMARK  169  A    between atoms: _389  and  _392
REMARK  170  A    between atoms: _392  and  _393
REMARK  171  A    between atoms: _399  and  _401
REMARK  172  A    between atoms: _401  and  _402
REMARK  173  A    between atoms: _401  and  _404
REMARK  174  A    between atoms: _404  and  _405
REMARK  175  A    between atoms: _408  and  _410
REMARK  176  A    between atoms: _410  and  _411
REMARK  177  A    between atoms: _410  and  _413
REMARK  178  A    between atoms: _413  and  _414
REMARK  179  A    between atoms: _419  and  _421
REMARK  180  A    between atoms: _421  and  _422
REMARK  181  A    between atoms: _424  and  _426
REMARK  182  A    between atoms: _426  and  _427
REMARK  183  A    between atoms: _426  and  _429
REMARK  184  A    between atoms: _429  and  _430
REMARK                            x       y       z     vdW  Elec       q    Type
REMARK                         _______ _______ _______ _____ _____    ______ ____
ROOT
ATOM      1  C   UNL     1      15.679  14.919   8.510  0.00  0.00    +0.000 C 
ENDROOT
BRANCH   1   2
ATOM      2  CA  UNL     1      16.180  15.439   7.160  0.00  0.00    +0.000 C 
BRANCH   2   3
ATOM      3  N   UNL     1      15.087  16.021   6.385  0.00  0.00    +0.000 NA
ATOM      4  H   UNL     1      14.304  15.409   6.077  0.00  0.00    +0.000 HD
ENDBRANCH   2   3
BRANCH   2   5
ATOM      5  C   UNL     1      16.890  14.325   6.385  0.00  0.00    +0.000 C 
ATOM      6  O   UNL     1      16.254  13.462   5.776  0.00  0.00    +0.000 OA
ENDBRANCH   2   5
ENDBRANCH   1   2
BRANCH   1   7
ATOM      7  C   UNL     1      15.104  16.021   9.384  0.00  0.00    +0.000 C 
BRANCH   7   8
ATOM      8  C   UNL     1      14.547  15.523  10.697  0.00  0.00    +0.000 C 
ATOM      9  O   UNL     1      14.278  16.368  11.576  0.00  0.00    +0.000 OA
ATOM     10 MN   UNL     1      14.257  14.694  13.306  0.00  0.00    +0.000 Mn
ATOM     11  O   UNL     1      14.369  14.296  10.851  0.00  0.00    +0.000 OA
ENDBRANCH   7   8
ENDBRANCH   1   7
TORSDOF 5
REMARK  Name = ../refined-set-2016/3g3r/3g3r_pocket.pdb
REMARK  184 active torsions:
REMARK  status: ('A' for Active; 'I' for Inactive)
REMARK    1  A    between atoms: _1  and  _3
REMARK    2  A    between atoms: _3  and  _4
REMARK    3  A    between atoms: _3  and  _6
REMARK    4  A    between atoms: _6  and  _7
REMARK    5  A    between atoms: _10  and  _12
REMARK    6  A    between atoms: _12  and  _13
REMARK    7  A    between atoms: _12  and  _15
REMARK    8  A    between atoms: _15  and  _16
REMARK    9  A    between atoms: _16  and  _17
REMARK   10  A    between atoms: _17  and  _18
REMARK   11  A    between atoms: _18  and  _19
REMARK   12  A    between atoms: _23  and  _25
REMARK   13  A    between atoms: _25  and  _26
REMARK   14  A    between atoms: _25  and  _28
REMARK   15  A    between atoms: _28  and  _29
REMARK   16  A    between atoms: _39  and  _41
REMARK   17  A    between atoms: _41  and  _42
REMARK   18  A    between atoms: _41  and  _44
REMARK   19  A    between atoms: _44  and  _45
REMARK   20  A    between atoms: _48  and  _50
REMARK   21  A    between atoms: _50  and  _51
REMARK   22  A    between atoms: _50  and  _53
REMARK   23  A    between atoms: _53  and  _54
REMARK   24  A    between atoms: _57  and  _59
REMARK   25  A    between atoms: _59  and  _60
REMARK   26  A    between atoms: _59  and  _62
REMARK   27  A    between atoms: _62  and  _63
REMARK   28  A    between atoms: _65  and  _67
REMARK   29  A    between atoms: _67  and  _68
REMARK   30  A    between atoms: _67  and  _70
REMARK   31  A    between atoms: _70  and  _71
REMARK   32  A    between atoms: _76  and  _77
REMARK   33  A    between atoms: _79  and  _81
REMARK   34  A    between atoms: _81  and  _82
REMARK   35  A    between atoms: _81  and  _84
REMARK   36  A    between atoms: _84  and  _85
REMARK   37  A    between atoms: _85  and  _86
REMARK   38  A    between atoms: _86  and  _87
REMARK   39  A    between atoms: _96  and  _98
REMARK   40  A    between atoms: _98  and  _99
REMARK   41  A    between atoms: _98  and  _101
REMARK   42  A    between atoms: _101  and  _102
REMARK   43  A    between atoms: _102  and  _103
REMARK   44  A    between atoms: _103  and  _104
REMARK   45  A    between atoms: _104  and  _105
REMARK   46  A    between atoms: _109  and  _111
REMARK   47  A    between atoms: _111  and  _112
REMARK   48  A    between atoms: _115  and  _117
REMARK   49  A    between atoms: _117  and  _118
REMARK   50  A    between atoms: _117  and  _120
REMARK   51  A    between atoms: _120  and  _121
REMARK   52  A    between atoms: _121  and  _122
REMARK   53  A    between atoms: _122  and  _123
REMARK   54  A    between atoms: _132  and  _134
REMARK   55  A    between atoms: _134  and  _135
REMARK   56  A    between atoms: _134  and  _137
REMARK   57  A    between atoms: _137  and  _138
REMARK   58  A    between atoms: _138  and  _139
REMARK   59  A    between atoms: _139  and  _140
REMARK   60  A    between atoms: _149  and  _151
REMARK   61  A    between atoms: _151  and  _152
REMARK   62  A    between atoms: _151  and  _154
REMARK   63  A    between atoms: _154  and  _155
REMARK   64  A    between atoms: _160  and  _161
REMARK   65  A    between atoms: _163  and  _165
REMARK   66  A    between atoms: _165  and  _166
REMARK   67  A    between atoms: _165  and  _168
REMARK   68  A    between atoms: _168  and  _169
REMARK   69  A    between atoms: _169  and  _170
REMARK   70  A    between atoms: _173  and  _175
REMARK   71  A    between atoms: _175  and  _176
REMARK   72  A    between atoms: _175  and  _178
REMARK   73  A    between atoms: _178  and  _179
REMARK   74  A    between atoms: _179  and  _180
REMARK   75  A    between atoms: _180  and  _181
REMARK   76  A    between atoms: _181  and  _182
REMARK   77  A    between atoms: _186  and  _188
REMARK   78  A    between atoms: _188  and  _189
REMARK   79  A    between atoms: _188  and  _191
REMARK   80  A    between atoms: _191  and  _192
REMARK   81  A    between atoms: _194  and  _196
REMARK   82  A    between atoms: _196  and  _197
REMARK   83  A    between atoms: _196  and  _199
REMARK   84  A    between atoms: _199  and  _200
REMARK   85  A    between atoms: _200  and  _201
REMARK   86  A    between atoms: _201  and  _202
REMARK   87  A    between atoms: _202  and  _203
REMARK   88  A    between atoms: _207  and  _209
REMARK   89  A    between atoms: _209  and  _210
REMARK   90  A    between atoms: _209  and  _212
REMARK   91  A    between atoms: _212  and  _213
REMARK   92  A    between atoms: _213  and  _214
REMARK   93  A    between atoms: _214  and  _215
REMARK   94  A    between atoms: _224  and  _226
REMARK   95  A    between atoms: _226  and  _227
REMARK   96  A    between atoms: _226  and  _229
REMARK   97  A    between atoms: _229  and  _230
REMARK   98  A    between atoms: _232  and  _234
REMARK   99  A    between atoms: _234  and  _235
REMARK  100  A    between atoms: _234  and  _237
REMARK  101  A    between atoms: _237  and  _238
REMARK  102  A    between atoms: _244  and  _246
REMARK  103  A    between atoms: _246  and  _247
REMARK  104  A    between atoms: _246  and  _249
REMARK  105  A    between atoms: _249  and  _250
REMARK  106  A    between atoms: _255  and  _256
REMARK  107  A    between atoms: _258  and  _260
REMARK  108  A    between atoms: _260  and  _261
REMARK  109  A    between atoms: _260  and  _263
REMARK  110  A    between atoms: _263  and  _264
REMARK  111  A    between atoms: _264  and  _265
REMARK  112  A    between atoms: _265  and  _266
REMARK  113  A    between atoms: _275  and  _277
REMARK  114  A    between atoms: _277  and  _278
REMARK  115  A    between atoms: _277  and  _280
REMARK  116  A    between atoms: _280  and  _281
REMARK  117  A    between atoms: _283  and  _285
REMARK  118  A    between atoms: _285  and  _286
REMARK  119  A    between atoms: _285  and  _288
REMARK  120  A    between atoms: _288  and  _289
REMARK  121  A    between atoms: _292  and  _294
REMARK  122  A    between atoms: _294  and  _295
REMARK  123  A    between atoms: _294  and  _297
REMARK  124  A    between atoms: _297  and  _298
REMARK  125  A    between atoms: _301  and  _303
REMARK  126  A    between atoms: _303  and  _304
REMARK  127  A    between atoms: _303  and  _306
REMARK  128  A    between atoms: _306  and  _307
REMARK  129  A    between atoms: _307  and  _308
REMARK  130  A    between atoms: _310  and  _312
REMARK  131  A    between atoms: _312  and  _313
REMARK  132  A    between atoms: _312  and  _315
REMARK  133  A    between atoms: _318  and  _320
REMARK  134  A    between atoms: _320  and  _321
REMARK  135  A    between atoms: _320  and  _323
REMARK  136  A    between atoms: _323  and  _324
REMARK  137  A    between atoms: _324  and  _325
REMARK  138  A    between atoms: _328  and  _330
REMARK  139  A    between atoms: _330  and  _331
REMARK  140  A    between atoms: _330  and  _333
REMARK  141  A    between atoms: _333  and  _334
REMARK  142  A    between atoms: _334  and  _335
REMARK  143  A    between atoms: _335  and  _336
REMARK  144  A    between atoms: _336  and  _337
REMARK  145  A    between atoms: _341  and  _343
REMARK  146  A    between atoms: _343  and  _344
REMARK  147  A    between atoms: _343  and  _346
REMARK  148  A    between atoms: _346  and  _347
REMARK  149  A    between atoms: _347  and  _348
REMARK  150  A    between atoms: _348  and  _349
REMARK  151  A    between atoms: _349  and  _350
REMARK  152  A    between atoms: _354  and  _356
REMARK  153  A    between atoms: _356  and  _357
REMARK  154  A    between atoms: _356  and  _359
REMARK  155  A    between atoms: _359  and  _360
REMARK  156  A    between atoms: _366  and  _368
REMARK  157  A    between atoms: _368  and  _369
REMARK  158  A    between atoms: _368  and  _371
REMARK  159  A    between atoms: _371  and  _372
REMARK  160  A    between atoms: _374  and  _376
REMARK  161  A    between atoms: _376  and  _377
REMARK  162  A    between atoms: _376  and  _379
REMARK  163  A    between atoms: _379  and  _380
REMARK  164  A    between atoms: _380  and  _381
REMARK  165  A    between atoms: _381  and  _382
REMARK  166  A    between atoms: _382  and  _383
REMARK  167  A    between atoms: _387  and  _389
REMARK  168  A    between atoms: _389  and  _390
REMARK  169  A    between atoms: _389  and  _392
REMARK  170  A    between atoms: _392  and  _393
REMARK  171  A    between atoms: _399  and  _401
REMARK  172  A    between atoms: _401  and  _402
REMARK  173  A    between atoms: _401  and  _404
REMARK  174  A    between atoms: _404  and  _405
REMARK  175  A    between atoms: _408  and  _410
REMARK  176  A    between atoms: _410  and  _411
REMARK  177  A    between atoms: _410  and  _413
REMARK  178  A    between atoms: _413  and  _414
REMARK  179  A    between atoms: _419  and  _421
REMARK  180  A    between atoms: _421  and  _422
REMARK  181  A    between atoms: _424  and  _426
REMARK  182  A    between atoms: _426  and  _427
REMARK  183  A    between atoms: _426  and  _429
REMARK  184  A    between atoms: _429  and  _430
REMARK                            x       y       z     vdW  Elec       q    Type
REMARK                         _______ _______ _______ _____ _____    ______ ____
ROOT
ATOM      1  CG  LYS A   1      18.939  10.234   9.486  0.00  0.00    -0.000 C 
ENDROOT
BRANCH   1   2
ATOM      2  CB  LYS A   1      19.620   9.534   8.326  0.00  0.00    +0.025 C 
BRANCH   2   3
ATOM      3  CA  LYS A   1      20.507  10.435   7.462  0.00  0.00    +0.133 C 
BRANCH   3   4
ATOM      4  N   LYS A   1      19.715  11.300   6.588  0.00  0.00    -0.239 NA
ATOM      5  H   LYS A   1      19.023  10.872   5.940  0.00  0.00    +0.142 HD
ENDBRANCH   3   4
BRANCH   3   6
ATOM      6  C   LYS A   1      21.454   9.574   6.642  0.00  0.00    +0.224 C 
ATOM      7  O   LYS A   1      21.034   8.618   5.985  0.00  0.00    -0.287 OA
ENDBRANCH   3   6
ENDBRANCH   2   3
ENDBRANCH   1   2
BRANCH   1   8
ATOM      8  CD  LYS A   1      17.649  10.892   9.027  0.00  0.00    -0.024 C 
BRANCH   8   9
ATOM      9  CE  LYS A   1      16.690   9.849   8.454  0.00  0.00    -0.086 C 
BRANCH   9  10
ATOM     10  NZ  LYS A   1      15.460  10.452   7.873  0.00  0.00    +0.380 N 
ATOM     11  HZ1 LYS A   1      14.952  10.979   8.611  0.00  0.00    -0.089 HD
ATOM     12  HZ2 LYS A   1      14.848   9.698   7.500  0.00  0.00    -0.089 HD
ATOM     13  HZ3 LYS A   1      15.723  11.099   7.102  0.00  0.00    -0.089 HD
ENDBRANCH   9  10
ENDBRANCH   8   9
ENDBRANCH   1   8
TORSDOF 7
REMARK  Name = ../refined-set-2016/3g3r/3g3r_pocket.pdb
REMARK  184 active torsions:
REMARK  status: ('A' for Active; 'I' for Inactive)
REMARK    1  A    between atoms: _1  and  _3
REMARK    2  A    between atoms: _3  and  _4
REMARK    3  A    between atoms: _3  and  _6
REMARK    4  A    between atoms: _6  and  _7
REMARK    5  A    between atoms: _10  and  _12
REMARK    6  A    between atoms: _12  and  _13
REMARK    7  A    between atoms: _12  and  _15
REMARK    8  A    between atoms: _15  and  _16
REMARK    9  A    between atoms: _16  and  _17
REMARK   10  A    between atoms: _17  and  _18
REMARK   11  A    between atoms: _18  and  _19
REMARK   12  A    between atoms: _23  and  _25
REMARK   13  A    between atoms: _25  and  _26
REMARK   14  A    between atoms: _25  and  _28
REMARK   15  A    between atoms: _28  and  _29
REMARK   16  A    between atoms: _39  and  _41
REMARK   17  A    between atoms: _41  and  _42
REMARK   18  A    between atoms: _41  and  _44
REMARK   19  A    between atoms: _44  and  _45
REMARK   20  A    between atoms: _48  and  _50
REMARK   21  A    between atoms: _50  and  _51
REMARK   22  A    between atoms: _50  and  _53
REMARK   23  A    between atoms: _53  and  _54
REMARK   24  A    between atoms: _57  and  _59
REMARK   25  A    between atoms: _59  and  _60
REMARK   26  A    between atoms: _59  and  _62
REMARK   27  A    between atoms: _62  and  _63
REMARK   28  A    between atoms: _65  and  _67
REMARK   29  A    between atoms: _67  and  _68
REMARK   30  A    between atoms: _67  and  _70
REMARK   31  A    between atoms: _70  and  _71
REMARK   32  A    between atoms: _76  and  _77
REMARK   33  A    between atoms: _79  and  _81
REMARK   34  A    between atoms: _81  and  _82
REMARK   35  A    between atoms: _81  and  _84
REMARK   36  A    between atoms: _84  and  _85
REMARK   37  A    between atoms: _85  and  _86
REMARK   38  A    between atoms: _86  and  _87
REMARK   39  A    between atoms: _96  and  _98
REMARK   40  A    between atoms: _98  and  _99
REMARK   41  A    between atoms: _98  and  _101
REMARK   42  A    between atoms: _101  and  _102
REMARK   43  A    between atoms: _102  and  _103
REMARK   44  A    between atoms: _103  and  _104
REMARK   45  A    between atoms: _104  and  _105
REMARK   46  A    between atoms: _109  and  _111
REMARK   47  A    between atoms: _111  and  _112
REMARK   48  A    between atoms: _115  and  _117
REMARK   49  A    between atoms: _117  and  _118
REMARK   50  A    between atoms: _117  and  _120
REMARK   51  A    between atoms: _120  and  _121
REMARK   52  A    between atoms: _121  and  _122
REMARK   53  A    between atoms: _122  and  _123
REMARK   54  A    between atoms: _132  and  _134
REMARK   55  A    between atoms: _134  and  _135
REMARK   56  A    between atoms: _134  and  _137
REMARK   57  A    between atoms: _137  and  _138
REMARK   58  A    between atoms: _138  and  _139
REMARK   59  A    between atoms: _139  and  _140
REMARK   60  A    between atoms: _149  and  _151
REMARK   61  A    between atoms: _151  and  _152
REMARK   62  A    between atoms: _151  and  _154
REMARK   63  A    between atoms: _154  and  _155
REMARK   64  A    between atoms: _160  and  _161
REMARK   65  A    between atoms: _163  and  _165
REMARK   66  A    between atoms: _165  and  _166
REMARK   67  A    between atoms: _165  and  _168
REMARK   68  A    between atoms: _168  and  _169
REMARK   69  A    between atoms: _169  and  _170
REMARK   70  A    between atoms: _173  and  _175
REMARK   71  A    between atoms: _175  and  _176
REMARK   72  A    between atoms: _175  and  _178
REMARK   73  A    between atoms: _178  and  _179
REMARK   74  A    between atoms: _179  and  _180
REMARK   75  A    between atoms: _180  and  _181
REMARK   76  A    between atoms: _181  and  _182
REMARK   77  A    between atoms: _186  and  _188
REMARK   78  A    between atoms: _188  and  _189
REMARK   79  A    between atoms: _188  and  _191
REMARK   80  A    between atoms: _191  and  _192
REMARK   81  A    between atoms: _194  and  _196
REMARK   82  A    between atoms: _196  and  _197
REMARK   83  A    between atoms: _196  and  _199
REMARK   84  A    between atoms: _199  and  _200
REMARK   85  A    between atoms: _200  and  _201
REMARK   86  A    between atoms: _201  and  _202
REMARK   87  A    between atoms: _202  and  _203
REMARK   88  A    between atoms: _207  and  _209
REMARK   89  A    between atoms: _209  and  _210
REMARK   90  A    between atoms: _209  and  _212
REMARK   91  A    between atoms: _212  and  _213
REMARK   92  A    between atoms: _213  and  _214
REMARK   93  A    between atoms: _214  and  _215
REMARK   94  A    between atoms: _224  and  _226
REMARK   95  A    between atoms: _226  and  _227
REMARK   96  A    between atoms: _226  and  _229
REMARK   97  A    between atoms: _229  and  _230
REMARK   98  A    between atoms: _232  and  _234
REMARK   99  A    between atoms: _234  and  _235
REMARK  100  A    between atoms: _234  and  _237
REMARK  101  A    between atoms: _237  and  _238
REMARK  102  A    between atoms: _244  and  _246
REMARK  103  A    between atoms: _246  and  _247
REMARK  104  A    between atoms: _246  and  _249
REMARK  105  A    between atoms: _249  and  _250
REMARK  106  A    between atoms: _255  and  _256
REMARK  107  A    between atoms: _258  and  _260
REMARK  108  A    between atoms: _260  and  _261
REMARK  109  A    between atoms: _260  and  _263
REMARK  110  A    between atoms: _263  and  _264
REMARK  111  A    between atoms: _264  and  _265
REMARK  112  A    between atoms: _265  and  _266
REMARK  113  A    between atoms: _275  and  _277
REMARK  114  A    between atoms: _277  and  _278
REMARK  115  A    between atoms: _277  and  _280
REMARK  116  A    between atoms: _280  and  _281
REMARK  117  A    between atoms: _283  and  _285
REMARK  118  A    between atoms: _285  and  _286
REMARK  119  A    between atoms: _285  and  _288
REMARK  120  A    between atoms: _288  and  _289
REMARK  121  A    between atoms: _292  and  _294
REMARK  122  A    between atoms: _294  and  _295
REMARK  123  A    between atoms: _294  and  _297
REMARK  124  A    between atoms: _297  and  _298
REMARK  125  A    between atoms: _301  and  _303
REMARK  126  A    between atoms: _303  and  _304
REMARK  127  A    between atoms: _303  and  _306
REMARK  128  A    between atoms: _306  and  _307
REMARK  129  A    between atoms: _307  and  _308
REMARK  130  A    between atoms: _310  and  _312
REMARK  131  A    between atoms: _312  and  _313
REMARK  132  A    between atoms: _312  and  _315
REMARK  133  A    between atoms: _318  and  _320
REMARK  134  A    between atoms: _320  and  _321
REMARK  135  A    between atoms: _320  and  _323
REMARK  136  A    between atoms: _323  and  _324
REMARK  137  A    between atoms: _324  and  _325
REMARK  138  A    between atoms: _328  and  _330
REMARK  139  A    between atoms: _330  and  _331
REMARK  140  A    between atoms: _330  and  _333
REMARK  141  A    between atoms: _333  and  _334
REMARK  142  A    between atoms: _334  and  _335
REMARK  143  A    between atoms: _335  and  _336
REMARK  144  A    between atoms: _336  and  _337
REMARK  145  A    between atoms: _341  and  _343
REMARK  146  A    between atoms: _343  and  _344
REMARK  147  A    between atoms: _343  and  _346
REMARK  148  A    between atoms: _346  and  _347
REMARK  149  A    between atoms: _347  and  _348
REMARK  150  A    between atoms: _348  and  _349
REMARK  151  A    between atoms: _349  and  _350
REMARK  152  A    between atoms: _354  and  _356
REMARK  153  A    between atoms: _356  and  _357
REMARK  154  A    between atoms: _356  and  _359
REMARK  155  A    between atoms: _359  and  _360
REMARK  156  A    between atoms: _366  and  _368
REMARK  157  A    between atoms: _368  and  _369
REMARK  158  A    between atoms: _368  and  _371
REMARK  159  A    between atoms: _371  and  _372
REMARK  160  A    between atoms: _374  and  _376
REMARK  161  A    between atoms: _376  and  _377
REMARK  162  A    between atoms: _376  and  _379
REMARK  163  A    between atoms: _379  and  _380
REMARK  164  A    between atoms: _380  and  _381
REMARK  165  A    between atoms: _381  and  _382
REMARK  166  A    between atoms: _382  and  _383
REMARK  167  A    between atoms: _387  and  _389
REMARK  168  A    between atoms: _389  and  _390
REMARK  169  A    between atoms: _389  and  _392
REMARK  170  A    between atoms: _392  and  _393
REMARK  171  A    between atoms: _399  and  _401
REMARK  172  A    between atoms: _401  and  _402
REMARK  173  A    between atoms: _401  and  _404
REMARK  174  A    between atoms: _404  and  _405
REMARK  175  A    between atoms: _408  and  _410
REMARK  176  A    between atoms: _410  and  _411
REMARK  177  A    between atoms: _410  and  _413
REMARK  178  A    between atoms: _413  and  _414
REMARK  179  A    between atoms: _419  and  _421
REMARK  180  A    between atoms: _421  and  _422
REMARK  181  A    between atoms: _424  and  _426
REMARK  182  A    between atoms: _426  and  _427
REMARK  183  A    between atoms: _426  and  _429
REMARK  184  A    between atoms: _429  and  _430
REMARK                            x       y       z     vdW  Elec       q    Type
REMARK                         _______ _______ _______ _____ _____    ______ ____
ROOT
ATOM      1  CA  LYS A   4      10.683  21.049  16.465  0.00  0.00    +0.149 C 
ENDROOT
BRANCH   1   2
ATOM      2  C   LYS A   4      10.305  21.404  17.902  0.00  0.00    +0.241 C 
ATOM      3  N   PHE A   5      10.833  20.661  18.869  0.00  0.00    -0.297 N 
ATOM      4  H   PHE A   5      11.432  19.849  18.617  0.00  0.00    +0.150 HD
ATOM      5  O   LYS A   4       9.556  22.334  18.125  0.00  0.00    -0.273 OA
BRANCH   3   6
ATOM      6  CA  PHE A   5      10.590  20.961  20.279  0.00  0.00    +0.153 C 
BRANCH   6   7
ATOM      7  C   PHE A   5      11.008  22.387  20.597  0.00  0.00    +0.241 C 
ATOM      8  O   PHE A   5      10.224  23.198  21.081  0.00  0.00    -0.273 OA
ATOM      9  N   ILE A   6      12.261  22.696  20.322  0.00  0.00    -0.297 N 
ATOM     10  H   ILE A   6      12.884  21.992  19.877  0.00  0.00    +0.150 HD
BRANCH   9  11
ATOM     11  CA  ILE A   6      12.774  24.024  20.641  0.00  0.00    +0.149 C 
BRANCH  11  12
ATOM     12  C   ILE A   6      12.026  25.103  19.864  0.00  0.00    +0.241 C 
ATOM     13  O   ILE A   6      11.687  26.143  20.414  0.00  0.00    -0.273 OA
ATOM     14  N   HIS A   7      11.748  24.856  18.589  0.00  0.00    -0.297 N 
ATOM     15  H   HIS A   7      12.046  23.964  18.145  0.00  0.00    +0.150 HD
BRANCH  14  16
ATOM     16  CA  HIS A   7      11.017  25.858  17.823  0.00  0.00    +0.155 C 
BRANCH  16  17
ATOM     17  C   HIS A   7       9.653  26.142  18.432  0.00  0.00    +0.241 C 
ATOM     18  N   GLY A   8       8.952  25.079  18.819  0.00  0.00    -0.296 N 
ATOM     19  H   GLY A   8       9.373  24.133  18.723  0.00  0.00    +0.150 HD
ATOM     20  O   HIS A   7       9.242  27.291  18.530  0.00  0.00    -0.273 OA
BRANCH  18  21
ATOM     21  CA  GLY A   8       7.613  25.206  19.373  0.00  0.00    +0.163 C 
BRANCH  21  22
ATOM     22  C   GLY A   8       7.577  25.986  20.667  0.00  0.00    +0.229 C 
ATOM     23  O   GLY A   8       6.738  26.881  20.837  0.00  0.00    -0.286 OA
ENDBRANCH  21  22
ENDBRANCH  18  21
ENDBRANCH  16  17
BRANCH  16  24
ATOM     24  CB  HIS A   7      10.812  25.439  16.371  0.00  0.00    +0.076 C 
BRANCH  24  25
ATOM     25  CG  HIS A   7      10.148  26.501  15.552  0.00  0.00    +0.082 A 
ATOM     26  CD2 HIS A   7       8.850  26.699  15.227  0.00  0.00    +0.115 A 
ATOM     27  NE2 HIS A   7       8.789  27.851  14.480  0.00  0.00    -0.221 NA
ATOM     28  CE1 HIS A   7      10.004  28.358  14.371  0.00  0.00    +0.199 A 
ATOM     29  ND1 HIS A   7      10.843  27.566  15.016  0.00  0.00    -0.227 NA
ENDBRANCH  24  25
ENDBRANCH  16  24
ENDBRANCH  14  16
ENDBRANCH  11  12
BRANCH  11  30
ATOM     30  CB  ILE A   6      14.280  24.085  20.374  0.00  0.00    +0.027 C 
ATOM     31  CG2 ILE A   6      14.801  25.511  20.457  0.00  0.00    +0.002 C 
BRANCH  30  32
ATOM     32  CG1 ILE A   6      15.001  23.196  21.390  0.00  0.00    +0.002 C 
ATOM     33  CD1 ILE A   6      16.489  23.026  21.095  0.00  0.00    +0.000 C 
ENDBRANCH  30  32
ENDBRANCH  11  30
ENDBRANCH   9  11
ENDBRANCH   6   7
BRANCH   6  34
ATOM     34  CB  PHE A   5      11.372  19.986  21.155  0.00  0.00    +0.055 C 
BRANCH  34  35
ATOM     35  CG  PHE A   5      11.309  20.288  22.633  0.00  0.00    -0.020 A 
ATOM     36  CD2 PHE A   5      12.441  20.178  23.416  0.00  0.00    -0.004 A 
ATOM     37  CE2 PHE A   5      12.394  20.442  24.779  0.00  0.00    -0.000 A 
ATOM     38  CZ  PHE A   5      11.202  20.804  25.372  0.00  0.00    -0.000 A 
ATOM     39  CE1 PHE A   5      10.066  20.891  24.600  0.00  0.00    -0.000 A 
ATOM     40  CD1 PHE A   5      10.123  20.639  23.240  0.00  0.00    -0.004 A 
ENDBRANCH  34  35
ENDBRANCH   6  34
ENDBRANCH   3   6
ENDBRANCH   1   2
BRANCH   1  43
ATOM     41  C   SER A   3      13.026  21.642  16.686  0.00  0.00    +0.243 C 
ATOM     42  O   SER A   3      12.753  22.794  17.040  0.00  0.00    -0.273 OA
ATOM     43  N   LYS A   4      12.101  20.735  16.371  0.00  0.00    -0.297 N 
ATOM     44  H   LYS A   4      12.397  19.790  16.054  0.00  0.00    +0.150 HD
BRANCH  41  45
ATOM     45  CA  SER A   3      14.471  21.199  16.587  0.00  0.00    +0.178 C 
BRANCH  45  47
ATOM     46  C   PHE A   2      16.219  21.700  14.947  0.00  0.00    +0.241 C 
ATOM     47  N   SER A   3      15.189  22.093  15.687  0.00  0.00    -0.295 N 
ATOM     48  H   SER A   3      14.880  23.084  15.622  0.00  0.00    +0.150 HD
ATOM     49  O   PHE A   2      16.636  20.542  14.924  0.00  0.00    -0.273 OA
BRANCH  46  50
ATOM     50  CA  PHE A   2      16.874  22.793  14.106  0.00  0.00    +0.153 C 
BRANCH  50  53
ATOM     51  C   LYS A   1      19.047  22.611  15.151  0.00  0.00    +0.238 C 
ATOM     52  O   LYS A   1      18.531  22.583  16.271  0.00  0.00    -0.274 OA
ATOM     53  N   PHE A   2      18.332  22.659  14.032  0.00  0.00    -0.297 N 
ATOM     54  H   PHE A   2      18.805  22.602  13.107  0.00  0.00    +0.150 HD
BRANCH  51  55
ATOM     55  CA  LYS A   1      20.567  22.614  15.016  0.00  0.00    +0.145 C 
BRANCH  55  56
ATOM     56  N   LYS A   1      21.025  23.121  13.729  0.00  0.00    -0.238 NA
ATOM     57  H   LYS A   1      21.133  24.146  13.592  0.00  0.00    +0.142 HD
ENDBRANCH  55  56
BRANCH  55  58
ATOM     58  CB  LYS A   1      21.139  23.462  16.154  0.00  0.00    +0.026 C 
BRANCH  58  59
ATOM     59  CG  LYS A   1      22.647  23.656  16.141  0.00  0.00    -0.000 C 
BRANCH  59  60
ATOM     60  CD  LYS A   1      23.066  24.574  17.276  0.00  0.00    -0.024 C 
BRANCH  60  61
ATOM     61  CE  LYS A   1      24.581  24.767  17.304  0.00  0.00    -0.086 C 
BRANCH  61  62
ATOM     62  NZ  LYS A   1      24.997  25.815  18.281  0.00  0.00    +0.380 N 
ATOM     63  HZ1 LYS A   1      24.688  25.540  19.235  0.00  0.00    -0.089 HD
ATOM     64  HZ2 LYS A   1      26.032  25.911  18.265  0.00  0.00    -0.089 HD
ATOM     65  HZ3 LYS A   1      24.560  26.722  18.022  0.00  0.00    -0.089 HD
ENDBRANCH  61  62
ENDBRANCH  60  61
ENDBRANCH  59  60
ENDBRANCH  58  59
ENDBRANCH  55  58
ENDBRANCH  51  55
ENDBRANCH  50  53
BRANCH  50  66
ATOM     66  CB  PHE A   2      16.222  22.855  12.728  0.00  0.00    +0.055 C 
BRANCH  66  67
ATOM     67  CG  PHE A   2      14.737  23.070  12.788  0.00  0.00    -0.020 A 
ATOM     68  CD2 PHE A   2      14.220  24.318  13.091  0.00  0.00    -0.004 A 
ATOM     69  CE2 PHE A   2      12.842  24.525  13.160  0.00  0.00    -0.000 A 
ATOM     70  CZ  PHE A   2      11.970  23.466  12.926  0.00  0.00    -0.000 A 
ATOM     71  CE1 PHE A   2      12.481  22.209  12.628  0.00  0.00    -0.000 A 
ATOM     72  CD1 PHE A   2      13.858  22.017  12.563  0.00  0.00    -0.004 A 
ENDBRANCH  66  67
ENDBRANCH  50  66
ENDBRANCH  46  50
ENDBRANCH  45  47
BRANCH  45  73
ATOM     73  CB  SER A   3      15.116  21.222  17.981  0.00  0.00    +0.166 C 
BRANCH  73  74
ATOM     74  OG  SER A   3      14.285  20.603  18.961  0.00  0.00    -0.380 OA
ATOM     75  H   SER A   3      14.734  20.638  19.843  0.00  0.00    +0.211 HD
ENDBRANCH  73  74
ENDBRANCH  45  73
ENDBRANCH  41  45
ENDBRANCH   1  43
BRANCH   1  76
ATOM     76  CB  LYS A   4       9.810  19.905  15.918  0.00  0.00    +0.029 C 
BRANCH  76  77
ATOM     77  CG  LYS A   4      10.197  19.462  14.500  0.00  0.00    +0.000 C 
BRANCH  77  78
ATOM     78  CD  LYS A   4       9.281  18.351  13.989  0.00  0.00    -0.024 C 
BRANCH  78  79
ATOM     79  CE  LYS A   4       9.533  18.030  12.518  0.00  0.00    -0.086 C 
BRANCH  79  80
ATOM     80  NZ  LYS A   4      10.813  17.309  12.292  0.00  0.00    +0.380 N 
ATOM     81  HZ1 LYS A   4      10.800  16.410  12.814  0.00  0.00    -0.089 HD
ATOM     82  HZ2 LYS A   4      11.604  17.895  12.628  0.00  0.00    -0.089 HD
ATOM     83  HZ3 LYS A   4      10.928  17.119  11.276  0.00  0.00    -0.089 HD
ENDBRANCH  79  80
ENDBRANCH  78  79
ENDBRANCH  77  78
ENDBRANCH  76  77
ENDBRANCH   1  76
TORSDOF 36
REMARK  Name = ../refined-set-2016/3g3r/3g3r_pocket.pdb
REMARK  184 active torsions:
REMARK  status: ('A' for Active; 'I' for Inactive)
REMARK    1  A    between atoms: _1  and  _3
REMARK    2  A    between atoms: _3  and  _4
REMARK    3  A    between atoms: _3  and  _6
REMARK    4  A    between atoms: _6  and  _7
REMARK    5  A    between atoms: _10  and  _12
REMARK    6  A    between atoms: _12  and  _13
REMARK    7  A    between atoms: _12  and  _15
REMARK    8  A    between atoms: _15  and  _16
REMARK    9  A    between atoms: _16  and  _17
REMARK   10  A    between atoms: _17  and  _18
REMARK   11  A    between atoms: _18  and  _19
REMARK   12  A    between atoms: _23  and  _25
REMARK   13  A    between atoms: _25  and  _26
REMARK   14  A    between atoms: _25  and  _28
REMARK   15  A    between atoms: _28  and  _29
REMARK   16  A    between atoms: _39  and  _41
REMARK   17  A    between atoms: _41  and  _42
REMARK   18  A    between atoms: _41  and  _44
REMARK   19  A    between atoms: _44  and  _45
REMARK   20  A    between atoms: _48  and  _50
REMARK   21  A    between atoms: _50  and  _51
REMARK   22  A    between atoms: _50  and  _53
REMARK   23  A    between atoms: _53  and  _54
REMARK   24  A    between atoms: _57  and  _59
REMARK   25  A    between atoms: _59  and  _60
REMARK   26  A    between atoms: _59  and  _62
REMARK   27  A    between atoms: _62  and  _63
REMARK   28  A    between atoms: _65  and  _67
REMARK   29  A    between atoms: _67  and  _68
REMARK   30  A    between atoms: _67  and  _70
REMARK   31  A    between atoms: _70  and  _71
REMARK   32  A    between atoms: _76  and  _77
REMARK   33  A    between atoms: _79  and  _81
REMARK   34  A    between atoms: _81  and  _82
REMARK   35  A    between atoms: _81  and  _84
REMARK   36  A    between atoms: _84  and  _85
REMARK   37  A    between atoms: _85  and  _86
REMARK   38  A    between atoms: _86  and  _87
REMARK   39  A    between atoms: _96  and  _98
REMARK   40  A    between atoms: _98  and  _99
REMARK   41  A    between atoms: _98  and  _101
REMARK   42  A    between atoms: _101  and  _102
REMARK   43  A    between atoms: _102  and  _103
REMARK   44  A    between atoms: _103  and  _104
REMARK   45  A    between atoms: _104  and  _105
REMARK   46  A    between atoms: _109  and  _111
REMARK   47  A    between atoms: _111  and  _112
REMARK   48  A    between atoms: _115  and  _117
REMARK   49  A    between atoms: _117  and  _118
REMARK   50  A    between atoms: _117  and  _120
REMARK   51  A    between atoms: _120  and  _121
REMARK   52  A    between atoms: _121  and  _122
REMARK   53  A    between atoms: _122  and  _123
REMARK   54  A    between atoms: _132  and  _134
REMARK   55  A    between atoms: _134  and  _135
REMARK   56  A    between atoms: _134  and  _137
REMARK   57  A    between atoms: _137  and  _138
REMARK   58  A    between atoms: _138  and  _139
REMARK   59  A    between atoms: _139  and  _140
REMARK   60  A    between atoms: _149  and  _151
REMARK   61  A    between atoms: _151  and  _152
REMARK   62  A    between atoms: _151  and  _154
REMARK   63  A    between atoms: _154  and  _155
REMARK   64  A    between atoms: _160  and  _161
REMARK   65  A    between atoms: _163  and  _165
REMARK   66  A    between atoms: _165  and  _166
REMARK   67  A    between atoms: _165  and  _168
REMARK   68  A    between atoms: _168  and  _169
REMARK   69  A    between atoms: _169  and  _170
REMARK   70  A    between atoms: _173  and  _175
REMARK   71  A    between atoms: _175  and  _176
REMARK   72  A    between atoms: _175  and  _178
REMARK   73  A    between atoms: _178  and  _179
REMARK   74  A    between atoms: _179  and  _180
REMARK   75  A    between atoms: _180  and  _181
REMARK   76  A    between atoms: _181  and  _182
REMARK   77  A    between atoms: _186  and  _188
REMARK   78  A    between atoms: _188  and  _189
REMARK   79  A    between atoms: _188  and  _191
REMARK   80  A    between atoms: _191  and  _192
REMARK   81  A    between atoms: _194  and  _196
REMARK   82  A    between atoms: _196  and  _197
REMARK   83  A    between atoms: _196  and  _199
REMARK   84  A    between atoms: _199  and  _200
REMARK   85  A    between atoms: _200  and  _201
REMARK   86  A    between atoms: _201  and  _202
REMARK   87  A    between atoms: _202  and  _203
REMARK   88  A    between atoms: _207  and  _209
REMARK   89  A    between atoms: _209  and  _210
REMARK   90  A    between atoms: _209  and  _212
REMARK   91  A    between atoms: _212  and  _213
REMARK   92  A    between atoms: _213  and  _214
REMARK   93  A    between atoms: _214  and  _215
REMARK   94  A    between atoms: _224  and  _226
REMARK   95  A    between atoms: _226  and  _227
REMARK   96  A    between atoms: _226  and  _229
REMARK   97  A    between atoms: _229  and  _230
REMARK   98  A    between atoms: _232  and  _234
REMARK   99  A    between atoms: _234  and  _235
REMARK  100  A    between atoms: _234  and  _237
REMARK  101  A    between atoms: _237  and  _238
REMARK  102  A    between atoms: _244  and  _246
REMARK  103  A    between atoms: _246  and  _247
REMARK  104  A    between atoms: _246  and  _249
REMARK  105  A    between atoms: _249  and  _250
REMARK  106  A    between atoms: _255  and  _256
REMARK  107  A    between atoms: _258  and  _260
REMARK  108  A    between atoms: _260  and  _261
REMARK  109  A    between atoms: _260  and  _263
REMARK  110  A    between atoms: _263  and  _264
REMARK  111  A    between atoms: _264  and  _265
REMARK  112  A    between atoms: _265  and  _266
REMARK  113  A    between atoms: _275  and  _277
REMARK  114  A    between atoms: _277  and  _278
REMARK  115  A    between atoms: _277  and  _280
REMARK  116  A    between atoms: _280  and  _281
REMARK  117  A    between atoms: _283  and  _285
REMARK  118  A    between atoms: _285  and  _286
REMARK  119  A    between atoms: _285  and  _288
REMARK  120  A    between atoms: _288  and  _289
REMARK  121  A    between atoms: _292  and  _294
REMARK  122  A    between atoms: _294  and  _295
REMARK  123  A    between atoms: _294  and  _297
REMARK  124  A    between atoms: _297  and  _298
REMARK  125  A    between atoms: _301  and  _303
REMARK  126  A    between atoms: _303  and  _304
REMARK  127  A    between atoms: _303  and  _306
REMARK  128  A    between atoms: _306  and  _307
REMARK  129  A    between atoms: _307  and  _308
REMARK  130  A    between atoms: _310  and  _312
REMARK  131  A    between atoms: _312  and  _313
REMARK  132  A    between atoms: _312  and  _315
REMARK  133  A    between atoms: _318  and  _320
REMARK  134  A    between atoms: _320  and  _321
REMARK  135  A    between atoms: _320  and  _323
REMARK  136  A    between atoms: _323  and  _324
REMARK  137  A    between atoms: _324  and  _325
REMARK  138  A    between atoms: _328  and  _330
REMARK  139  A    between atoms: _330  and  _331
REMARK  140  A    between atoms: _330  and  _333
REMARK  141  A    between atoms: _333  and  _334
REMARK  142  A    between atoms: _334  and  _335
REMARK  143  A    between atoms: _335  and  _336
REMARK  144  A    between atoms: _336  and  _337
REMARK  145  A    between atoms: _341  and  _343
REMARK  146  A    between atoms: _343  and  _344
REMARK  147  A    between atoms: _343  and  _346
REMARK  148  A    between atoms: _346  and  _347
REMARK  149  A    between atoms: _347  and  _348
REMARK  150  A    between atoms: _348  and  _349
REMARK  151  A    between atoms: _349  and  _350
REMARK  152  A    between atoms: _354  and  _356
REMARK  153  A    between atoms: _356  and  _357
REMARK  154  A    between atoms: _356  and  _359
REMARK  155  A    between atoms: _359  and  _360
REMARK  156  A    between atoms: _366  and  _368
REMARK  157  A    between atoms: _368  and  _369
REMARK  158  A    between atoms: _368  and  _371
REMARK  159  A    between atoms: _371  and  _372
REMARK  160  A    between atoms: _374  and  _376
REMARK  161  A    between atoms: _376  and  _377
REMARK  162  A    between atoms: _376  and  _379
REMARK  163  A    between atoms: _379  and  _380
REMARK  164  A    between atoms: _380  and  _381
REMARK  165  A    between atoms: _381  and  _382
REMARK  166  A    between atoms: _382  and  _383
REMARK  167  A    between atoms: _387  and  _389
REMARK  168  A    between atoms: _389  and  _390
REMARK  169  A    between atoms: _389  and  _392
REMARK  170  A    between atoms: _392  and  _393
REMARK  171  A    between atoms: _399  and  _401
REMARK  172  A    between atoms: _401  and  _402
REMARK  173  A    between atoms: _401  and  _404
REMARK  174  A    between atoms: _404  and  _405
REMARK  175  A    between atoms: _408  and  _410
REMARK  176  A    between atoms: _410  and  _411
REMARK  177  A    between atoms: _410  and  _413
REMARK  178  A    between atoms: _413  and  _414
REMARK  179  A    between atoms: _419  and  _421
REMARK  180  A    between atoms: _421  and  _422
REMARK  181  A    between atoms: _424  and  _426
REMARK  182  A    between atoms: _426  and  _427
REMARK  183  A    between atoms: _426  and  _429
REMARK  184  A    between atoms: _429  and  _430
REMARK                            x       y       z     vdW  Elec       q    Type
REMARK                         _______ _______ _______ _____ _____    ______ ____
ROOT
ATOM      1  CG  TRP A   1      15.746  28.368  13.962  0.00  0.00    -0.002 A 
ATOM      2  CD2 TRP A   1      16.134  27.320  14.855  0.00  0.00    +0.013 A 
ATOM      3  CE2 TRP A   1      14.965  26.891  15.525  0.00  0.00    +0.056 A 
ATOM      4  CZ2 TRP A   1      14.985  25.875  16.479  0.00  0.00    +0.017 A 
ATOM      5  CH2 TRP A   1      16.186  25.285  16.749  0.00  0.00    +0.001 A 
ATOM      6  CZ3 TRP A   1      17.365  25.693  16.102  0.00  0.00    +0.000 A 
ATOM      7  NE1 TRP A   1      13.921  27.644  15.059  0.00  0.00    -0.352 N 
ATOM      8  HE1 TRP A   1      12.931  27.560  15.366  0.00  0.00    +0.166 HD
ATOM      9  CE3 TRP A   1      17.350  26.698  15.151  0.00  0.00    +0.001 A 
ATOM     10  CD1 TRP A   1      14.391  28.528  14.121  0.00  0.00    +0.068 A 
ENDROOT
BRANCH   1  11
ATOM     11  CB  TRP A   1      16.639  29.128  13.034  0.00  0.00    +0.053 C 
BRANCH  11  12
ATOM     12  CA  TRP A   1      17.136  30.472  13.584  0.00  0.00    +0.137 C 
BRANCH  12  13
ATOM     13  N   TRP A   1      17.869  30.314  14.830  0.00  0.00    -0.239 NA
ATOM     14  H   TRP A   1      17.641  29.541  15.487  0.00  0.00    +0.142 HD
ENDBRANCH  12  13
BRANCH  12  15
ATOM     15  C   TRP A   1      15.995  31.492  13.744  0.00  0.00    +0.224 C 
ATOM     16  O   TRP A   1      15.338  31.850  12.765  0.00  0.00    -0.287 OA
ENDBRANCH  12  15
ENDBRANCH  11  12
ENDBRANCH   1  11
TORSDOF 4
REMARK  Name = ../refined-set-2016/3g3r/3g3r_pocket.pdb
REMARK  184 active torsions:
REMARK  status: ('A' for Active; 'I' for Inactive)
REMARK    1  A    between atoms: _1  and  _3
REMARK    2  A    between atoms: _3  and  _4
REMARK    3  A    between atoms: _3  and  _6
REMARK    4  A    between atoms: _6  and  _7
REMARK    5  A    between atoms: _10  and  _12
REMARK    6  A    between atoms: _12  and  _13
REMARK    7  A    between atoms: _12  and  _15
REMARK    8  A    between atoms: _15  and  _16
REMARK    9  A    between atoms: _16  and  _17
REMARK   10  A    between atoms: _17  and  _18
REMARK   11  A    between atoms: _18  and  _19
REMARK   12  A    between atoms: _23  and  _25
REMARK   13  A    between atoms: _25  and  _26
REMARK   14  A    between atoms: _25  and  _28
REMARK   15  A    between atoms: _28  and  _29
REMARK   16  A    between atoms: _39  and  _41
REMARK   17  A    between atoms: _41  and  _42
REMARK   18  A    between atoms: _41  and  _44
REMARK   19  A    between atoms: _44  and  _45
REMARK   20  A    between atoms: _48  and  _50
REMARK   21  A    between atoms: _50  and  _51
REMARK   22  A    between atoms: _50  and  _53
REMARK   23  A    between atoms: _53  and  _54
REMARK   24  A    between atoms: _57  and  _59
REMARK   25  A    between atoms: _59  and  _60
REMARK   26  A    between atoms: _59  and  _62
REMARK   27  A    between atoms: _62  and  _63
REMARK   28  A    between atoms: _65  and  _67
REMARK   29  A    between atoms: _67  and  _68
REMARK   30  A    between atoms: _67  and  _70
REMARK   31  A    between atoms: _70  and  _71
REMARK   32  A    between atoms: _76  and  _77
REMARK   33  A    between atoms: _79  and  _81
REMARK   34  A    between atoms: _81  and  _82
REMARK   35  A    between atoms: _81  and  _84
REMARK   36  A    between atoms: _84  and  _85
REMARK   37  A    between atoms: _85  and  _86
REMARK   38  A    between atoms: _86  and  _87
REMARK   39  A    between atoms: _96  and  _98
REMARK   40  A    between atoms: _98  and  _99
REMARK   41  A    between atoms: _98  and  _101
REMARK   42  A    between atoms: _101  and  _102
REMARK   43  A    between atoms: _102  and  _103
REMARK   44  A    between atoms: _103  and  _104
REMARK   45  A    between atoms: _104  and  _105
REMARK   46  A    between atoms: _109  and  _111
REMARK   47  A    between atoms: _111  and  _112
REMARK   48  A    between atoms: _115  and  _117
REMARK   49  A    between atoms: _117  and  _118
REMARK   50  A    between atoms: _117  and  _120
REMARK   51  A    between atoms: _120  and  _121
REMARK   52  A    between atoms: _121  and  _122
REMARK   53  A    between atoms: _122  and  _123
REMARK   54  A    between atoms: _132  and  _134
REMARK   55  A    between atoms: _134  and  _135
REMARK   56  A    between atoms: _134  and  _137
REMARK   57  A    between atoms: _137  and  _138
REMARK   58  A    between atoms: _138  and  _139
REMARK   59  A    between atoms: _139  and  _140
REMARK   60  A    between atoms: _149  and  _151
REMARK   61  A    between atoms: _151  and  _152
REMARK   62  A    between atoms: _151  and  _154
REMARK   63  A    between atoms: _154  and  _155
REMARK   64  A    between atoms: _160  and  _161
REMARK   65  A    between atoms: _163  and  _165
REMARK   66  A    between atoms: _165  and  _166
REMARK   67  A    between atoms: _165  and  _168
REMARK   68  A    between atoms: _168  and  _169
REMARK   69  A    between atoms: _169  and  _170
REMARK   70  A    between atoms: _173  and  _175
REMARK   71  A    between atoms: _175  and  _176
REMARK   72  A    between atoms: _175  and  _178
REMARK   73  A    between atoms: _178  and  _179
REMARK   74  A    between atoms: _179  and  _180
REMARK   75  A    between atoms: _180  and  _181
REMARK   76  A    between atoms: _181  and  _182
REMARK   77  A    between atoms: _186  and  _188
REMARK   78  A    between atoms: _188  and  _189
REMARK   79  A    between atoms: _188  and  _191
REMARK   80  A    between atoms: _191  and  _192
REMARK   81  A    between atoms: _194  and  _196
REMARK   82  A    between atoms: _196  and  _197
REMARK   83  A    between atoms: _196  and  _199
REMARK   84  A    between atoms: _199  and  _200
REMARK   85  A    between atoms: _200  and  _201
REMARK   86  A    between atoms: _201  and  _202
REMARK   87  A    between atoms: _202  and  _203
REMARK   88  A    between atoms: _207  and  _209
REMARK   89  A    between atoms: _209  and  _210
REMARK   90  A    between atoms: _209  and  _212
REMARK   91  A    between atoms: _212  and  _213
REMARK   92  A    between atoms: _213  and  _214
REMARK   93  A    between atoms: _214  and  _215
REMARK   94  A    between atoms: _224  and  _226
REMARK   95  A    between atoms: _226  and  _227
REMARK   96  A    between atoms: _226  and  _229
REMARK   97  A    between atoms: _229  and  _230
REMARK   98  A    between atoms: _232  and  _234
REMARK   99  A    between atoms: _234  and  _235
REMARK  100  A    between atoms: _234  and  _237
REMARK  101  A    between atoms: _237  and  _238
REMARK  102  A    between atoms: _244  and  _246
REMARK  103  A    between atoms: _246  and  _247
REMARK  104  A    between atoms: _246  and  _249
REMARK  105  A    between atoms: _249  and  _250
REMARK  106  A    between atoms: _255  and  _256
REMARK  107  A    between atoms: _258  and  _260
REMARK  108  A    between atoms: _260  and  _261
REMARK  109  A    between atoms: _260  and  _263
REMARK  110  A    between atoms: _263  and  _264
REMARK  111  A    between atoms: _264  and  _265
REMARK  112  A    between atoms: _265  and  _266
REMARK  113  A    between atoms: _275  and  _277
REMARK  114  A    between atoms: _277  and  _278
REMARK  115  A    between atoms: _277  and  _280
REMARK  116  A    between atoms: _280  and  _281
REMARK  117  A    between atoms: _283  and  _285
REMARK  118  A    between atoms: _285  and  _286
REMARK  119  A    between atoms: _285  and  _288
REMARK  120  A    between atoms: _288  and  _289
REMARK  121  A    between atoms: _292  and  _294
REMARK  122  A    between atoms: _294  and  _295
REMARK  123  A    between atoms: _294  and  _297
REMARK  124  A    between atoms: _297  and  _298
REMARK  125  A    between atoms: _301  and  _303
REMARK  126  A    between atoms: _303  and  _304
REMARK  127  A    between atoms: _303  and  _306
REMARK  128  A    between atoms: _306  and  _307
REMARK  129  A    between atoms: _307  and  _308
REMARK  130  A    between atoms: _310  and  _312
REMARK  131  A    between atoms: _312  and  _313
REMARK  132  A    between atoms: _312  and  _315
REMARK  133  A    between atoms: _318  and  _320
REMARK  134  A    between atoms: _320  and  _321
REMARK  135  A    between atoms: _320  and  _323
REMARK  136  A    between atoms: _323  and  _324
REMARK  137  A    between atoms: _324  and  _325
REMARK  138  A    between atoms: _328  and  _330
REMARK  139  A    between atoms: _330  and  _331
REMARK  140  A    between atoms: _330  and  _333
REMARK  141  A    between atoms: _333  and  _334
REMARK  142  A    between atoms: _334  and  _335
REMARK  143  A    between atoms: _335  and  _336
REMARK  144  A    between atoms: _336  and  _337
REMARK  145  A    between atoms: _341  and  _343
REMARK  146  A    between atoms: _343  and  _344
REMARK  147  A    between atoms: _343  and  _346
REMARK  148  A    between atoms: _346  and  _347
REMARK  149  A    between atoms: _347  and  _348
REMARK  150  A    between atoms: _348  and  _349
REMARK  151  A    between atoms: _349  and  _350
REMARK  152  A    between atoms: _354  and  _356
REMARK  153  A    between atoms: _356  and  _357
REMARK  154  A    between atoms: _356  and  _359
REMARK  155  A    between atoms: _359  and  _360
REMARK  156  A    between atoms: _366  and  _368
REMARK  157  A    between atoms: _368  and  _369
REMARK  158  A    between atoms: _368  and  _371
REMARK  159  A    between atoms: _371  and  _372
REMARK  160  A    between atoms: _374  and  _376
REMARK  161  A    between atoms: _376  and  _377
REMARK  162  A    between atoms: _376  and  _379
REMARK  163  A    between atoms: _379  and  _380
REMARK  164  A    between atoms: _380  and  _381
REMARK  165  A    between atoms: _381  and  _382
REMARK  166  A    between atoms: _382  and  _383
REMARK  167  A    between atoms: _387  and  _389
REMARK  168  A    between atoms: _389  and  _390
REMARK  169  A    between atoms: _389  and  _392
REMARK  170  A    between atoms: _392  and  _393
REMARK  171  A    between atoms: _399  and  _401
REMARK  172  A    between atoms: _401  and  _402
REMARK  173  A    between atoms: _401  and  _404
REMARK  174  A    between atoms: _404  and  _405
REMARK  175  A    between atoms: _408  and  _410
REMARK  176  A    between atoms: _410  and  _411
REMARK  177  A    between atoms: _410  and  _413
REMARK  178  A    between atoms: _413  and  _414
REMARK  179  A    between atoms: _419  and  _421
REMARK  180  A    between atoms: _421  and  _422
REMARK  181  A    between atoms: _424  and  _426
REMARK  182  A    between atoms: _426  and  _427
REMARK  183  A    between atoms: _426  and  _429
REMARK  184  A    between atoms: _429  and  _430
REMARK                            x       y       z     vdW  Elec       q    Type
REMARK                         _______ _______ _______ _____ _____    ______ ____
ROOT
ATOM      1  O   HOH     1       8.700  16.247  16.863  0.00  0.00    +0.000 OA
ENDROOT
TORSDOF 0
REMARK  Name = ../refined-set-2016/3g3r/3g3r_pocket.pdb
REMARK  184 active torsions:
REMARK  status: ('A' for Active; 'I' for Inactive)
REMARK    1  A    between atoms: _1  and  _3
REMARK    2  A    between atoms: _3  and  _4
REMARK    3  A    between atoms: _3  and  _6
REMARK    4  A    between atoms: _6  and  _7
REMARK    5  A    between atoms: _10  and  _12
REMARK    6  A    between atoms: _12  and  _13
REMARK    7  A    between atoms: _12  and  _15
REMARK    8  A    between atoms: _15  and  _16
REMARK    9  A    between atoms: _16  and  _17
REMARK   10  A    between atoms: _17  and  _18
REMARK   11  A    between atoms: _18  and  _19
REMARK   12  A    between atoms: _23  and  _25
REMARK   13  A    between atoms: _25  and  _26
REMARK   14  A    between atoms: _25  and  _28
REMARK   15  A    between atoms: _28  and  _29
REMARK   16  A    between atoms: _39  and  _41
REMARK   17  A    between atoms: _41  and  _42
REMARK   18  A    between atoms: _41  and  _44
REMARK   19  A    between atoms: _44  and  _45
REMARK   20  A    between atoms: _48  and  _50
REMARK   21  A    between atoms: _50  and  _51
REMARK   22  A    between atoms: _50  and  _53
REMARK   23  A    between atoms: _53  and  _54
REMARK   24  A    between atoms: _57  and  _59
REMARK   25  A    between atoms: _59  and  _60
REMARK   26  A    between atoms: _59  and  _62
REMARK   27  A    between atoms: _62  and  _63
REMARK   28  A    between atoms: _65  and  _67
REMARK   29  A    between atoms: _67  and  _68
REMARK   30  A    between atoms: _67  and  _70
REMARK   31  A    between atoms: _70  and  _71
REMARK   32  A    between atoms: _76  and  _77
REMARK   33  A    between atoms: _79  and  _81
REMARK   34  A    between atoms: _81  and  _82
REMARK   35  A    between atoms: _81  and  _84
REMARK   36  A    between atoms: _84  and  _85
REMARK   37  A    between atoms: _85  and  _86
REMARK   38  A    between atoms: _86  and  _87
REMARK   39  A    between atoms: _96  and  _98
REMARK   40  A    between atoms: _98  and  _99
REMARK   41  A    between atoms: _98  and  _101
REMARK   42  A    between atoms: _101  and  _102
REMARK   43  A    between atoms: _102  and  _103
REMARK   44  A    between atoms: _103  and  _104
REMARK   45  A    between atoms: _104  and  _105
REMARK   46  A    between atoms: _109  and  _111
REMARK   47  A    between atoms: _111  and  _112
REMARK   48  A    between atoms: _115  and  _117
REMARK   49  A    between atoms: _117  and  _118
REMARK   50  A    between atoms: _117  and  _120
REMARK   51  A    between atoms: _120  and  _121
REMARK   52  A    between atoms: _121  and  _122
REMARK   53  A    between atoms: _122  and  _123
REMARK   54  A    between atoms: _132  and  _134
REMARK   55  A    between atoms: _134  and  _135
REMARK   56  A    between atoms: _134  and  _137
REMARK   57  A    between atoms: _137  and  _138
REMARK   58  A    between atoms: _138  and  _139
REMARK   59  A    between atoms: _139  and  _140
REMARK   60  A    between atoms: _149  and  _151
REMARK   61  A    between atoms: _151  and  _152
REMARK   62  A    between atoms: _151  and  _154
REMARK   63  A    between atoms: _154  and  _155
REMARK   64  A    between atoms: _160  and  _161
REMARK   65  A    between atoms: _163  and  _165
REMARK   66  A    between atoms: _165  and  _166
REMARK   67  A    between atoms: _165  and  _168
REMARK   68  A    between atoms: _168  and  _169
REMARK   69  A    between atoms: _169  and  _170
REMARK   70  A    between atoms: _173  and  _175
REMARK   71  A    between atoms: _175  and  _176
REMARK   72  A    between atoms: _175  and  _178
REMARK   73  A    between atoms: _178  and  _179
REMARK   74  A    between atoms: _179  and  _180
REMARK   75  A    between atoms: _180  and  _181
REMARK   76  A    between atoms: _181  and  _182
REMARK   77  A    between atoms: _186  and  _188
REMARK   78  A    between atoms: _188  and  _189
REMARK   79  A    between atoms: _188  and  _191
REMARK   80  A    between atoms: _191  and  _192
REMARK   81  A    between atoms: _194  and  _196
REMARK   82  A    between atoms: _196  and  _197
REMARK   83  A    between atoms: _196  and  _199
REMARK   84  A    between atoms: _199  and  _200
REMARK   85  A    between atoms: _200  and  _201
REMARK   86  A    between atoms: _201  and  _202
REMARK   87  A    between atoms: _202  and  _203
REMARK   88  A    between atoms: _207  and  _209
REMARK   89  A    between atoms: _209  and  _210
REMARK   90  A    between atoms: _209  and  _212
REMARK   91  A    between atoms: _212  and  _213
REMARK   92  A    between atoms: _213  and  _214
REMARK   93  A    between atoms: _214  and  _215
REMARK   94  A    between atoms: _224  and  _226
REMARK   95  A    between atoms: _226  and  _227
REMARK   96  A    between atoms: _226  and  _229
REMARK   97  A    between atoms: _229  and  _230
REMARK   98  A    between atoms: _232  and  _234
REMARK   99  A    between atoms: _234  and  _235
REMARK  100  A    between atoms: _234  and  _237
REMARK  101  A    between atoms: _237  and  _238
REMARK  102  A    between atoms: _244  and  _246
REMARK  103  A    between atoms: _246  and  _247
REMARK  104  A    between atoms: _246  and  _249
REMARK  105  A    between atoms: _249  and  _250
REMARK  106  A    between atoms: _255  and  _256
REMARK  107  A    between atoms: _258  and  _260
REMARK  108  A    between atoms: _260  and  _261
REMARK  109  A    between atoms: _260  and  _263
REMARK  110  A    between atoms: _263  and  _264
REMARK  111  A    between atoms: _264  and  _265
REMARK  112  A    between atoms: _265  and  _266
REMARK  113  A    between atoms: _275  and  _277
REMARK  114  A    between atoms: _277  and  _278
REMARK  115  A    between atoms: _277  and  _280
REMARK  116  A    between atoms: _280  and  _281
REMARK  117  A    between atoms: _283  and  _285
REMARK  118  A    between atoms: _285  and  _286
REMARK  119  A    between atoms: _285  and  _288
REMARK  120  A    between atoms: _288  and  _289
REMARK  121  A    between atoms: _292  and  _294
REMARK  122  A    between atoms: _294  and  _295
REMARK  123  A    between atoms: _294  and  _297
REMARK  124  A    between atoms: _297  and  _298
REMARK  125  A    between atoms: _301  and  _303
REMARK  126  A    between atoms: _303  and  _304
REMARK  127  A    between atoms: _303  and  _306
REMARK  128  A    between atoms: _306  and  _307
REMARK  129  A    between atoms: _307  and  _308
REMARK  130  A    between atoms: _310  and  _312
REMARK  131  A    between atoms: _312  and  _313
REMARK  132  A    between atoms: _312  and  _315
REMARK  133  A    between atoms: _318  and  _320
REMARK  134  A    between atoms: _320  and  _321
REMARK  135  A    between atoms: _320  and  _323
REMARK  136  A    between atoms: _323  and  _324
REMARK  137  A    between atoms: _324  and  _325
REMARK  138  A    between atoms: _328  and  _330
REMARK  139  A    between atoms: _330  and  _331
REMARK  140  A    between atoms: _330  and  _333
REMARK  141  A    between atoms: _333  and  _334
REMARK  142  A    between atoms: _334  and  _335
REMARK  143  A    between atoms: _335  and  _336
REMARK  144  A    between atoms: _336  and  _337
REMARK  145  A    between atoms: _341  and  _343
REMARK  146  A    between atoms: _343  and  _344
REMARK  147  A    between atoms: _343  and  _346
REMARK  148  A    between atoms: _346  and  _347
REMARK  149  A    between atoms: _347  and  _348
REMARK  150  A    between atoms: _348  and  _349
REMARK  151  A    between atoms: _349  and  _350
REMARK  152  A    between atoms: _354  and  _356
REMARK  153  A    between atoms: _356  and  _357
REMARK  154  A    between atoms: _356  and  _359
REMARK  155  A    between atoms: _359  and  _360
REMARK  156  A    between atoms: _366  and  _368
REMARK  157  A    between atoms: _368  and  _369
REMARK  158  A    between atoms: _368  and  _371
REMARK  159  A    between atoms: _371  and  _372
REMARK  160  A    between atoms: _374  and  _376
REMARK  161  A    between atoms: _376  and  _377
REMARK  162  A    between atoms: _376  and  _379
REMARK  163  A    between atoms: _379  and  _380
REMARK  164  A    between atoms: _380  and  _381
REMARK  165  A    between atoms: _381  and  _382
REMARK  166  A    between atoms: _382  and  _383
REMARK  167  A    between atoms: _387  and  _389
REMARK  168  A    between atoms: _389  and  _390
REMARK  169  A    between atoms: _389  and  _392
REMARK  170  A    between atoms: _392  and  _393
REMARK  171  A    between atoms: _399  and  _401
REMARK  172  A    between atoms: _401  and  _402
REMARK  173  A    between atoms: _401  and  _404
REMARK  174  A    between atoms: _404  and  _405
REMARK  175  A    between atoms: _408  and  _410
REMARK  176  A    between atoms: _410  and  _411
REMARK  177  A    between atoms: _410  and  _413
REMARK  178  A    between atoms: _413  and  _414
REMARK  179  A    between atoms: _419  and  _421
REMARK  180  A    between atoms: _421  and  _422
REMARK  181  A    between atoms: _424  and  _426
REMARK  182  A    between atoms: _426  and  _427
REMARK  183  A    between atoms: _426  and  _429
REMARK  184  A    between atoms: _429  and  _430
REMARK                            x       y       z     vdW  Elec       q    Type
REMARK                         _______ _______ _______ _____ _____    ______ ____
ROOT
ATOM      1  O   HOH     1      15.323  19.199  21.312  0.00  0.00    +0.000 OA
ENDROOT
TORSDOF 0
REMARK  Name = ../refined-set-2016/3g3r/3g3r_pocket.pdb
REMARK  184 active torsions:
REMARK  status: ('A' for Active; 'I' for Inactive)
REMARK    1  A    between atoms: _1  and  _3
REMARK    2  A    between atoms: _3  and  _4
REMARK    3  A    between atoms: _3  and  _6
REMARK    4  A    between atoms: _6  and  _7
REMARK    5  A    between atoms: _10  and  _12
REMARK    6  A    between atoms: _12  and  _13
REMARK    7  A    between atoms: _12  and  _15
REMARK    8  A    between atoms: _15  and  _16
REMARK    9  A    between atoms: _16  and  _17
REMARK   10  A    between atoms: _17  and  _18
REMARK   11  A    between atoms: _18  and  _19
REMARK   12  A    between atoms: _23  and  _25
REMARK   13  A    between atoms: _25  and  _26
REMARK   14  A    between atoms: _25  and  _28
REMARK   15  A    between atoms: _28  and  _29
REMARK   16  A    between atoms: _39  and  _41
REMARK   17  A    between atoms: _41  and  _42
REMARK   18  A    between atoms: _41  and  _44
REMARK   19  A    between atoms: _44  and  _45
REMARK   20  A    between atoms: _48  and  _50
REMARK   21  A    between atoms: _50  and  _51
REMARK   22  A    between atoms: _50  and  _53
REMARK   23  A    between atoms: _53  and  _54
REMARK   24  A    between atoms: _57  and  _59
REMARK   25  A    between atoms: _59  and  _60
REMARK   26  A    between atoms: _59  and  _62
REMARK   27  A    between atoms: _62  and  _63
REMARK   28  A    between atoms: _65  and  _67
REMARK   29  A    between atoms: _67  and  _68
REMARK   30  A    between atoms: _67  and  _70
REMARK   31  A    between atoms: _70  and  _71
REMARK   32  A    between atoms: _76  and  _77
REMARK   33  A    between atoms: _79  and  _81
REMARK   34  A    between atoms: _81  and  _82
REMARK   35  A    between atoms: _81  and  _84
REMARK   36  A    between atoms: _84  and  _85
REMARK   37  A    between atoms: _85  and  _86
REMARK   38  A    between atoms: _86  and  _87
REMARK   39  A    between atoms: _96  and  _98
REMARK   40  A    between atoms: _98  and  _99
REMARK   41  A    between atoms: _98  and  _101
REMARK   42  A    between atoms: _101  and  _102
REMARK   43  A    between atoms: _102  and  _103
REMARK   44  A    between atoms: _103  and  _104
REMARK   45  A    between atoms: _104  and  _105
REMARK   46  A    between atoms: _109  and  _111
REMARK   47  A    between atoms: _111  and  _112
REMARK   48  A    between atoms: _115  and  _117
REMARK   49  A    between atoms: _117  and  _118
REMARK   50  A    between atoms: _117  and  _120
REMARK   51  A    between atoms: _120  and  _121
REMARK   52  A    between atoms: _121  and  _122
REMARK   53  A    between atoms: _122  and  _123
REMARK   54  A    between atoms: _132  and  _134
REMARK   55  A    between atoms: _134  and  _135
REMARK   56  A    between atoms: _134  and  _137
REMARK   57  A    between atoms: _137  and  _138
REMARK   58  A    between atoms: _138  and  _139
REMARK   59  A    between atoms: _139  and  _140
REMARK   60  A    between atoms: _149  and  _151
REMARK   61  A    between atoms: _151  and  _152
REMARK   62  A    between atoms: _151  and  _154
REMARK   63  A    between atoms: _154  and  _155
REMARK   64  A    between atoms: _160  and  _161
REMARK   65  A    between atoms: _163  and  _165
REMARK   66  A    between atoms: _165  and  _166
REMARK   67  A    between atoms: _165  and  _168
REMARK   68  A    between atoms: _168  and  _169
REMARK   69  A    between atoms: _169  and  _170
REMARK   70  A    between atoms: _173  and  _175
REMARK   71  A    between atoms: _175  and  _176
REMARK   72  A    between atoms: _175  and  _178
REMARK   73  A    between atoms: _178  and  _179
REMARK   74  A    between atoms: _179  and  _180
REMARK   75  A    between atoms: _180  and  _181
REMARK   76  A    between atoms: _181  and  _182
REMARK   77  A    between atoms: _186  and  _188
REMARK   78  A    between atoms: _188  and  _189
REMARK   79  A    between atoms: _188  and  _191
REMARK   80  A    between atoms: _191  and  _192
REMARK   81  A    between atoms: _194  and  _196
REMARK   82  A    between atoms: _196  and  _197
REMARK   83  A    between atoms: _196  and  _199
REMARK   84  A    between atoms: _199  and  _200
REMARK   85  A    between atoms: _200  and  _201
REMARK   86  A    between atoms: _201  and  _202
REMARK   87  A    between atoms: _202  and  _203
REMARK   88  A    between atoms: _207  and  _209
REMARK   89  A    between atoms: _209  and  _210
REMARK   90  A    between atoms: _209  and  _212
REMARK   91  A    between atoms: _212  and  _213
REMARK   92  A    between atoms: _213  and  _214
REMARK   93  A    between atoms: _214  and  _215
REMARK   94  A    between atoms: _224  and  _226
REMARK   95  A    between atoms: _226  and  _227
REMARK   96  A    between atoms: _226  and  _229
REMARK   97  A    between atoms: _229  and  _230
REMARK   98  A    between atoms: _232  and  _234
REMARK   99  A    between atoms: _234  and  _235
REMARK  100  A    between atoms: _234  and  _237
REMARK  101  A    between atoms: _237  and  _238
REMARK  102  A    between atoms: _244  and  _246
REMARK  103  A    between atoms: _246  and  _247
REMARK  104  A    between atoms: _246  and  _249
REMARK  105  A    between atoms: _249  and  _250
REMARK  106  A    between atoms: _255  and  _256
REMARK  107  A    between atoms: _258  and  _260
REMARK  108  A    between atoms: _260  and  _261
REMARK  109  A    between atoms: _260  and  _263
REMARK  110  A    between atoms: _263  and  _264
REMARK  111  A    between atoms: _264  and  _265
REMARK  112  A    between atoms: _265  and  _266
REMARK  113  A    between atoms: _275  and  _277
REMARK  114  A    between atoms: _277  and  _278
REMARK  115  A    between atoms: _277  and  _280
REMARK  116  A    between atoms: _280  and  _281
REMARK  117  A    between atoms: _283  and  _285
REMARK  118  A    between atoms: _285  and  _286
REMARK  119  A    between atoms: _285  and  _288
REMARK  120  A    between atoms: _288  and  _289
REMARK  121  A    between atoms: _292  and  _294
REMARK  122  A    between atoms: _294  and  _295
REMARK  123  A    between atoms: _294  and  _297
REMARK  124  A    between atoms: _297  and  _298
REMARK  125  A    between atoms: _301  and  _303
REMARK  126  A    between atoms: _303  and  _304
REMARK  127  A    between atoms: _303  and  _306
REMARK  128  A    between atoms: _306  and  _307
REMARK  129  A    between atoms: _307  and  _308
REMARK  130  A    between atoms: _310  and  _312
REMARK  131  A    between atoms: _312  and  _313
REMARK  132  A    between atoms: _312  and  _315
REMARK  133  A    between atoms: _318  and  _320
REMARK  134  A    between atoms: _320  and  _321
REMARK  135  A    between atoms: _320  and  _323
REMARK  136  A    between atoms: _323  and  _324
REMARK  137  A    between atoms: _324  and  _325
REMARK  138  A    between atoms: _328  and  _330
REMARK  139  A    between atoms: _330  and  _331
REMARK  140  A    between atoms: _330  and  _333
REMARK  141  A    between atoms: _333  and  _334
REMARK  142  A    between atoms: _334  and  _335
REMARK  143  A    between atoms: _335  and  _336
REMARK  144  A    between atoms: _336  and  _337
REMARK  145  A    between atoms: _341  and  _343
REMARK  146  A    between atoms: _343  and  _344
REMARK  147  A    between atoms: _343  and  _346
REMARK  148  A    between atoms: _346  and  _347
REMARK  149  A    between atoms: _347  and  _348
REMARK  150  A    between atoms: _348  and  _349
REMARK  151  A    between atoms: _349  and  _350
REMARK  152  A    between atoms: _354  and  _356
REMARK  153  A    between atoms: _356  and  _357
REMARK  154  A    between atoms: _356  and  _359
REMARK  155  A    between atoms: _359  and  _360
REMARK  156  A    between atoms: _366  and  _368
REMARK  157  A    between atoms: _368  and  _369
REMARK  158  A    between atoms: _368  and  _371
REMARK  159  A    between atoms: _371  and  _372
REMARK  160  A    between atoms: _374  and  _376
REMARK  161  A    between atoms: _376  and  _377
REMARK  162  A    between atoms: _376  and  _379
REMARK  163  A    between atoms: _379  and  _380
REMARK  164  A    between atoms: _380  and  _381
REMARK  165  A    between atoms: _381  and  _382
REMARK  166  A    between atoms: _382  and  _383
REMARK  167  A    between atoms: _387  and  _389
REMARK  168  A    between atoms: _389  and  _390
REMARK  169  A    between atoms: _389  and  _392
REMARK  170  A    between atoms: _392  and  _393
REMARK  171  A    between atoms: _399  and  _401
REMARK  172  A    between atoms: _401  and  _402
REMARK  173  A    between atoms: _401  and  _404
REMARK  174  A    between atoms: _404  and  _405
REMARK  175  A    between atoms: _408  and  _410
REMARK  176  A    between atoms: _410  and  _411
REMARK  177  A    between atoms: _410  and  _413
REMARK  178  A    between atoms: _413  and  _414
REMARK  179  A    between atoms: _419  and  _421
REMARK  180  A    between atoms: _421  and  _422
REMARK  181  A    between atoms: _424  and  _426
REMARK  182  A    between atoms: _426  and  _427
REMARK  183  A    between atoms: _426  and  _429
REMARK  184  A    between atoms: _429  and  _430
REMARK                            x       y       z     vdW  Elec       q    Type
REMARK                         _______ _______ _______ _____ _____    ______ ____
ROOT
ATOM      1  O   HOH     1      13.073  18.552  12.487  0.00  0.00    +0.000 OA
ENDROOT
TORSDOF 0
REMARK  Name = ../refined-set-2016/3g3r/3g3r_pocket.pdb
REMARK  184 active torsions:
REMARK  status: ('A' for Active; 'I' for Inactive)
REMARK    1  A    between atoms: _1  and  _3
REMARK    2  A    between atoms: _3  and  _4
REMARK    3  A    between atoms: _3  and  _6
REMARK    4  A    between atoms: _6  and  _7
REMARK    5  A    between atoms: _10  and  _12
REMARK    6  A    between atoms: _12  and  _13
REMARK    7  A    between atoms: _12  and  _15
REMARK    8  A    between atoms: _15  and  _16
REMARK    9  A    between atoms: _16  and  _17
REMARK   10  A    between atoms: _17  and  _18
REMARK   11  A    between atoms: _18  and  _19
REMARK   12  A    between atoms: _23  and  _25
REMARK   13  A    between atoms: _25  and  _26
REMARK   14  A    between atoms: _25  and  _28
REMARK   15  A    between atoms: _28  and  _29
REMARK   16  A    between atoms: _39  and  _41
REMARK   17  A    between atoms: _41  and  _42
REMARK   18  A    between atoms: _41  and  _44
REMARK   19  A    between atoms: _44  and  _45
REMARK   20  A    between atoms: _48  and  _50
REMARK   21  A    between atoms: _50  and  _51
REMARK   22  A    between atoms: _50  and  _53
REMARK   23  A    between atoms: _53  and  _54
REMARK   24  A    between atoms: _57  and  _59
REMARK   25  A    between atoms: _59  and  _60
REMARK   26  A    between atoms: _59  and  _62
REMARK   27  A    between atoms: _62  and  _63
REMARK   28  A    between atoms: _65  and  _67
REMARK   29  A    between atoms: _67  and  _68
REMARK   30  A    between atoms: _67  and  _70
REMARK   31  A    between atoms: _70  and  _71
REMARK   32  A    between atoms: _76  and  _77
REMARK   33  A    between atoms: _79  and  _81
REMARK   34  A    between atoms: _81  and  _82
REMARK   35  A    between atoms: _81  and  _84
REMARK   36  A    between atoms: _84  and  _85
REMARK   37  A    between atoms: _85  and  _86
REMARK   38  A    between atoms: _86  and  _87
REMARK   39  A    between atoms: _96  and  _98
REMARK   40  A    between atoms: _98  and  _99
REMARK   41  A    between atoms: _98  and  _101
REMARK   42  A    between atoms: _101  and  _102
REMARK   43  A    between atoms: _102  and  _103
REMARK   44  A    between atoms: _103  and  _104
REMARK   45  A    between atoms: _104  and  _105
REMARK   46  A    between atoms: _109  and  _111
REMARK   47  A    between atoms: _111  and  _112
REMARK   48  A    between atoms: _115  and  _117
REMARK   49  A    between atoms: _117  and  _118
REMARK   50  A    between atoms: _117  and  _120
REMARK   51  A    between atoms: _120  and  _121
REMARK   52  A    between atoms: _121  and  _122
REMARK   53  A    between atoms: _122  and  _123
REMARK   54  A    between atoms: _132  and  _134
REMARK   55  A    between atoms: _134  and  _135
REMARK   56  A    between atoms: _134  and  _137
REMARK   57  A    between atoms: _137  and  _138
REMARK   58  A    between atoms: _138  and  _139
REMARK   59  A    between atoms: _139  and  _140
REMARK   60  A    between atoms: _149  and  _151
REMARK   61  A    between atoms: _151  and  _152
REMARK   62  A    between atoms: _151  and  _154
REMARK   63  A    between atoms: _154  and  _155
REMARK   64  A    between atoms: _160  and  _161
REMARK   65  A    between atoms: _163  and  _165
REMARK   66  A    between atoms: _165  and  _166
REMARK   67  A    between atoms: _165  and  _168
REMARK   68  A    between atoms: _168  and  _169
REMARK   69  A    between atoms: _169  and  _170
REMARK   70  A    between atoms: _173  and  _175
REMARK   71  A    between atoms: _175  and  _176
REMARK   72  A    between atoms: _175  and  _178
REMARK   73  A    between atoms: _178  and  _179
REMARK   74  A    between atoms: _179  and  _180
REMARK   75  A    between atoms: _180  and  _181
REMARK   76  A    between atoms: _181  and  _182
REMARK   77  A    between atoms: _186  and  _188
REMARK   78  A    between atoms: _188  and  _189
REMARK   79  A    between atoms: _188  and  _191
REMARK   80  A    between atoms: _191  and  _192
REMARK   81  A    between atoms: _194  and  _196
REMARK   82  A    between atoms: _196  and  _197
REMARK   83  A    between atoms: _196  and  _199
REMARK   84  A    between atoms: _199  and  _200
REMARK   85  A    between atoms: _200  and  _201
REMARK   86  A    between atoms: _201  and  _202
REMARK   87  A    between atoms: _202  and  _203
REMARK   88  A    between atoms: _207  and  _209
REMARK   89  A    between atoms: _209  and  _210
REMARK   90  A    between atoms: _209  and  _212
REMARK   91  A    between atoms: _212  and  _213
REMARK   92  A    between atoms: _213  and  _214
REMARK   93  A    between atoms: _214  and  _215
REMARK   94  A    between atoms: _224  and  _226
REMARK   95  A    between atoms: _226  and  _227
REMARK   96  A    between atoms: _226  and  _229
REMARK   97  A    between atoms: _229  and  _230
REMARK   98  A    between atoms: _232  and  _234
REMARK   99  A    between atoms: _234  and  _235
REMARK  100  A    between atoms: _234  and  _237
REMARK  101  A    between atoms: _237  and  _238
REMARK  102  A    between atoms: _244  and  _246
REMARK  103  A    between atoms: _246  and  _247
REMARK  104  A    between atoms: _246  and  _249
REMARK  105  A    between atoms: _249  and  _250
REMARK  106  A    between atoms: _255  and  _256
REMARK  107  A    between atoms: _258  and  _260
REMARK  108  A    between atoms: _260  and  _261
REMARK  109  A    between atoms: _260  and  _263
REMARK  110  A    between atoms: _263  and  _264
REMARK  111  A    between atoms: _264  and  _265
REMARK  112  A    between atoms: _265  and  _266
REMARK  113  A    between atoms: _275  and  _277
REMARK  114  A    between atoms: _277  and  _278
REMARK  115  A    between atoms: _277  and  _280
REMARK  116  A    between atoms: _280  and  _281
REMARK  117  A    between atoms: _283  and  _285
REMARK  118  A    between atoms: _285  and  _286
REMARK  119  A    between atoms: _285  and  _288
REMARK  120  A    between atoms: _288  and  _289
REMARK  121  A    between atoms: _292  and  _294
REMARK  122  A    between atoms: _294  and  _295
REMARK  123  A    between atoms: _294  and  _297
REMARK  124  A    between atoms: _297  and  _298
REMARK  125  A    between atoms: _301  and  _303
REMARK  126  A    between atoms: _303  and  _304
REMARK  127  A    between atoms: _303  and  _306
REMARK  128  A    between atoms: _306  and  _307
REMARK  129  A    between atoms: _307  and  _308
REMARK  130  A    between atoms: _310  and  _312
REMARK  131  A    between atoms: _312  and  _313
REMARK  132  A    between atoms: _312  and  _315
REMARK  133  A    between atoms: _318  and  _320
REMARK  134  A    between atoms: _320  and  _321
REMARK  135  A    between atoms: _320  and  _323
REMARK  136  A    between atoms: _323  and  _324
REMARK  137  A    between atoms: _324  and  _325
REMARK  138  A    between atoms: _328  and  _330
REMARK  139  A    between atoms: _330  and  _331
REMARK  140  A    between atoms: _330  and  _333
REMARK  141  A    between atoms: _333  and  _334
REMARK  142  A    between atoms: _334  and  _335
REMARK  143  A    between atoms: _335  and  _336
REMARK  144  A    between atoms: _336  and  _337
REMARK  145  A    between atoms: _341  and  _343
REMARK  146  A    between atoms: _343  and  _344
REMARK  147  A    between atoms: _343  and  _346
REMARK  148  A    between atoms: _346  and  _347
REMARK  149  A    between atoms: _347  and  _348
REMARK  150  A    between atoms: _348  and  _349
REMARK  151  A    between atoms: _349  and  _350
REMARK  152  A    between atoms: _354  and  _356
REMARK  153  A    between atoms: _356  and  _357
REMARK  154  A    between atoms: _356  and  _359
REMARK  155  A    between atoms: _359  and  _360
REMARK  156  A    between atoms: _366  and  _368
REMARK  157  A    between atoms: _368  and  _369
REMARK  158  A    between atoms: _368  and  _371
REMARK  159  A    between atoms: _371  and  _372
REMARK  160  A    between atoms: _374  and  _376
REMARK  161  A    between atoms: _376  and  _377
REMARK  162  A    between atoms: _376  and  _379
REMARK  163  A    between atoms: _379  and  _380
REMARK  164  A    between atoms: _380  and  _381
REMARK  165  A    between atoms: _381  and  _382
REMARK  166  A    between atoms: _382  and  _383
REMARK  167  A    between atoms: _387  and  _389
REMARK  168  A    between atoms: _389  and  _390
REMARK  169  A    between atoms: _389  and  _392
REMARK  170  A    between atoms: _392  and  _393
REMARK  171  A    between atoms: _399  and  _401
REMARK  172  A    between atoms: _401  and  _402
REMARK  173  A    between atoms: _401  and  _404
REMARK  174  A    between atoms: _404  and  _405
REMARK  175  A    between atoms: _408  and  _410
REMARK  176  A    between atoms: _410  and  _411
REMARK  177  A    between atoms: _410  and  _413
REMARK  178  A    between atoms: _413  and  _414
REMARK  179  A    between atoms: _419  and  _421
REMARK  180  A    between atoms: _421  and  _422
REMARK  181  A    between atoms: _424  and  _426
REMARK  182  A    between atoms: _426  and  _427
REMARK  183  A    between atoms: _426  and  _429
REMARK  184  A    between atoms: _429  and  _430
REMARK                            x       y       z     vdW  Elec       q    Type
REMARK                         _______ _______ _______ _____ _____    ______ ____
ROOT
ATOM      1  O   HOH     1      19.791  14.458  20.670  0.00  0.00    +0.000 OA
ENDROOT
TORSDOF 0
REMARK  Name = ../refined-set-2016/3g3r/3g3r_pocket.pdb
REMARK  184 active torsions:
REMARK  status: ('A' for Active; 'I' for Inactive)
REMARK    1  A    between atoms: _1  and  _3
REMARK    2  A    between atoms: _3  and  _4
REMARK    3  A    between atoms: _3  and  _6
REMARK    4  A    between atoms: _6  and  _7
REMARK    5  A    between atoms: _10  and  _12
REMARK    6  A    between atoms: _12  and  _13
REMARK    7  A    between atoms: _12  and  _15
REMARK    8  A    between atoms: _15  and  _16
REMARK    9  A    between atoms: _16  and  _17
REMARK   10  A    between atoms: _17  and  _18
REMARK   11  A    between atoms: _18  and  _19
REMARK   12  A    between atoms: _23  and  _25
REMARK   13  A    between atoms: _25  and  _26
REMARK   14  A    between atoms: _25  and  _28
REMARK   15  A    between atoms: _28  and  _29
REMARK   16  A    between atoms: _39  and  _41
REMARK   17  A    between atoms: _41  and  _42
REMARK   18  A    between atoms: _41  and  _44
REMARK   19  A    between atoms: _44  and  _45
REMARK   20  A    between atoms: _48  and  _50
REMARK   21  A    between atoms: _50  and  _51
REMARK   22  A    between atoms: _50  and  _53
REMARK   23  A    between atoms: _53  and  _54
REMARK   24  A    between atoms: _57  and  _59
REMARK   25  A    between atoms: _59  and  _60
REMARK   26  A    between atoms: _59  and  _62
REMARK   27  A    between atoms: _62  and  _63
REMARK   28  A    between atoms: _65  and  _67
REMARK   29  A    between atoms: _67  and  _68
REMARK   30  A    between atoms: _67  and  _70
REMARK   31  A    between atoms: _70  and  _71
REMARK   32  A    between atoms: _76  and  _77
REMARK   33  A    between atoms: _79  and  _81
REMARK   34  A    between atoms: _81  and  _82
REMARK   35  A    between atoms: _81  and  _84
REMARK   36  A    between atoms: _84  and  _85
REMARK   37  A    between atoms: _85  and  _86
REMARK   38  A    between atoms: _86  and  _87
REMARK   39  A    between atoms: _96  and  _98
REMARK   40  A    between atoms: _98  and  _99
REMARK   41  A    between atoms: _98  and  _101
REMARK   42  A    between atoms: _101  and  _102
REMARK   43  A    between atoms: _102  and  _103
REMARK   44  A    between atoms: _103  and  _104
REMARK   45  A    between atoms: _104  and  _105
REMARK   46  A    between atoms: _109  and  _111
REMARK   47  A    between atoms: _111  and  _112
REMARK   48  A    between atoms: _115  and  _117
REMARK   49  A    between atoms: _117  and  _118
REMARK   50  A    between atoms: _117  and  _120
REMARK   51  A    between atoms: _120  and  _121
REMARK   52  A    between atoms: _121  and  _122
REMARK   53  A    between atoms: _122  and  _123
REMARK   54  A    between atoms: _132  and  _134
REMARK   55  A    between atoms: _134  and  _135
REMARK   56  A    between atoms: _134  and  _137
REMARK   57  A    between atoms: _137  and  _138
REMARK   58  A    between atoms: _138  and  _139
REMARK   59  A    between atoms: _139  and  _140
REMARK   60  A    between atoms: _149  and  _151
REMARK   61  A    between atoms: _151  and  _152
REMARK   62  A    between atoms: _151  and  _154
REMARK   63  A    between atoms: _154  and  _155
REMARK   64  A    between atoms: _160  and  _161
REMARK   65  A    between atoms: _163  and  _165
REMARK   66  A    between atoms: _165  and  _166
REMARK   67  A    between atoms: _165  and  _168
REMARK   68  A    between atoms: _168  and  _169
REMARK   69  A    between atoms: _169  and  _170
REMARK   70  A    between atoms: _173  and  _175
REMARK   71  A    between atoms: _175  and  _176
REMARK   72  A    between atoms: _175  and  _178
REMARK   73  A    between atoms: _178  and  _179
REMARK   74  A    between atoms: _179  and  _180
REMARK   75  A    between atoms: _180  and  _181
REMARK   76  A    between atoms: _181  and  _182
REMARK   77  A    between atoms: _186  and  _188
REMARK   78  A    between atoms: _188  and  _189
REMARK   79  A    between atoms: _188  and  _191
REMARK   80  A    between atoms: _191  and  _192
REMARK   81  A    between atoms: _194  and  _196
REMARK   82  A    between atoms: _196  and  _197
REMARK   83  A    between atoms: _196  and  _199
REMARK   84  A    between atoms: _199  and  _200
REMARK   85  A    between atoms: _200  and  _201
REMARK   86  A    between atoms: _201  and  _202
REMARK   87  A    between atoms: _202  and  _203
REMARK   88  A    between atoms: _207  and  _209
REMARK   89  A    between atoms: _209  and  _210
REMARK   90  A    between atoms: _209  and  _212
REMARK   91  A    between atoms: _212  and  _213
REMARK   92  A    between atoms: _213  and  _214
REMARK   93  A    between atoms: _214  and  _215
REMARK   94  A    between atoms: _224  and  _226
REMARK   95  A    between atoms: _226  and  _227
REMARK   96  A    between atoms: _226  and  _229
REMARK   97  A    between atoms: _229  and  _230
REMARK   98  A    between atoms: _232  and  _234
REMARK   99  A    between atoms: _234  and  _235
REMARK  100  A    between atoms: _234  and  _237
REMARK  101  A    between atoms: _237  and  _238
REMARK  102  A    between atoms: _244  and  _246
REMARK  103  A    between atoms: _246  and  _247
REMARK  104  A    between atoms: _246  and  _249
REMARK  105  A    between atoms: _249  and  _250
REMARK  106  A    between atoms: _255  and  _256
REMARK  107  A    between atoms: _258  and  _260
REMARK  108  A    between atoms: _260  and  _261
REMARK  109  A    between atoms: _260  and  _263
REMARK  110  A    between atoms: _263  and  _264
REMARK  111  A    between atoms: _264  and  _265
REMARK  112  A    between atoms: _265  and  _266
REMARK  113  A    between atoms: _275  and  _277
REMARK  114  A    between atoms: _277  and  _278
REMARK  115  A    between atoms: _277  and  _280
REMARK  116  A    between atoms: _280  and  _281
REMARK  117  A    between atoms: _283  and  _285
REMARK  118  A    between atoms: _285  and  _286
REMARK  119  A    between atoms: _285  and  _288
REMARK  120  A    between atoms: _288  and  _289
REMARK  121  A    between atoms: _292  and  _294
REMARK  122  A    between atoms: _294  and  _295
REMARK  123  A    between atoms: _294  and  _297
REMARK  124  A    between atoms: _297  and  _298
REMARK  125  A    between atoms: _301  and  _303
REMARK  126  A    between atoms: _303  and  _304
REMARK  127  A    between atoms: _303  and  _306
REMARK  128  A    between atoms: _306  and  _307
REMARK  129  A    between atoms: _307  and  _308
REMARK  130  A    between atoms: _310  and  _312
REMARK  131  A    between atoms: _312  and  _313
REMARK  132  A    between atoms: _312  and  _315
REMARK  133  A    between atoms: _318  and  _320
REMARK  134  A    between atoms: _320  and  _321
REMARK  135  A    between atoms: _320  and  _323
REMARK  136  A    between atoms: _323  and  _324
REMARK  137  A    between atoms: _324  and  _325
REMARK  138  A    between atoms: _328  and  _330
REMARK  139  A    between atoms: _330  and  _331
REMARK  140  A    between atoms: _330  and  _333
REMARK  141  A    between atoms: _333  and  _334
REMARK  142  A    between atoms: _334  and  _335
REMARK  143  A    between atoms: _335  and  _336
REMARK  144  A    between atoms: _336  and  _337
REMARK  145  A    between atoms: _341  and  _343
REMARK  146  A    between atoms: _343  and  _344
REMARK  147  A    between atoms: _343  and  _346
REMARK  148  A    between atoms: _346  and  _347
REMARK  149  A    between atoms: _347  and  _348
REMARK  150  A    between atoms: _348  and  _349
REMARK  151  A    between atoms: _349  and  _350
REMARK  152  A    between atoms: _354  and  _356
REMARK  153  A    between atoms: _356  and  _357
REMARK  154  A    between atoms: _356  and  _359
REMARK  155  A    between atoms: _359  and  _360
REMARK  156  A    between atoms: _366  and  _368
REMARK  157  A    between atoms: _368  and  _369
REMARK  158  A    between atoms: _368  and  _371
REMARK  159  A    between atoms: _371  and  _372
REMARK  160  A    between atoms: _374  and  _376
REMARK  161  A    between atoms: _376  and  _377
REMARK  162  A    between atoms: _376  and  _379
REMARK  163  A    between atoms: _379  and  _380
REMARK  164  A    between atoms: _380  and  _381
REMARK  165  A    between atoms: _381  and  _382
REMARK  166  A    between atoms: _382  and  _383
REMARK  167  A    between atoms: _387  and  _389
REMARK  168  A    between atoms: _389  and  _390
REMARK  169  A    between atoms: _389  and  _392
REMARK  170  A    between atoms: _392  and  _393
REMARK  171  A    between atoms: _399  and  _401
REMARK  172  A    between atoms: _401  and  _402
REMARK  173  A    between atoms: _401  and  _404
REMARK  174  A    between atoms: _404  and  _405
REMARK  175  A    between atoms: _408  and  _410
REMARK  176  A    between atoms: _410  and  _411
REMARK  177  A    between atoms: _410  and  _413
REMARK  178  A    between atoms: _413  and  _414
REMARK  179  A    between atoms: _419  and  _421
REMARK  180  A    between atoms: _421  and  _422
REMARK  181  A    between atoms: _424  and  _426
REMARK  182  A    between atoms: _426  and  _427
REMARK  183  A    between atoms: _426  and  _429
REMARK  184  A    between atoms: _429  and  _430
REMARK                            x       y       z     vdW  Elec       q    Type
REMARK                         _______ _______ _______ _____ _____    ______ ____
ROOT
ATOM      1  O   HOH     1       5.379  14.654  15.930  0.00  0.00    +0.000 OA
ENDROOT
TORSDOF 0
REMARK  Name = ../refined-set-2016/3g3r/3g3r_pocket.pdb
REMARK  184 active torsions:
REMARK  status: ('A' for Active; 'I' for Inactive)
REMARK    1  A    between atoms: _1  and  _3
REMARK    2  A    between atoms: _3  and  _4
REMARK    3  A    between atoms: _3  and  _6
REMARK    4  A    between atoms: _6  and  _7
REMARK    5  A    between atoms: _10  and  _12
REMARK    6  A    between atoms: _12  and  _13
REMARK    7  A    between atoms: _12  and  _15
REMARK    8  A    between atoms: _15  and  _16
REMARK    9  A    between atoms: _16  and  _17
REMARK   10  A    between atoms: _17  and  _18
REMARK   11  A    between atoms: _18  and  _19
REMARK   12  A    between atoms: _23  and  _25
REMARK   13  A    between atoms: _25  and  _26
REMARK   14  A    between atoms: _25  and  _28
REMARK   15  A    between atoms: _28  and  _29
REMARK   16  A    between atoms: _39  and  _41
REMARK   17  A    between atoms: _41  and  _42
REMARK   18  A    between atoms: _41  and  _44
REMARK   19  A    between atoms: _44  and  _45
REMARK   20  A    between atoms: _48  and  _50
REMARK   21  A    between atoms: _50  and  _51
REMARK   22  A    between atoms: _50  and  _53
REMARK   23  A    between atoms: _53  and  _54
REMARK   24  A    between atoms: _57  and  _59
REMARK   25  A    between atoms: _59  and  _60
REMARK   26  A    between atoms: _59  and  _62
REMARK   27  A    between atoms: _62  and  _63
REMARK   28  A    between atoms: _65  and  _67
REMARK   29  A    between atoms: _67  and  _68
REMARK   30  A    between atoms: _67  and  _70
REMARK   31  A    between atoms: _70  and  _71
REMARK   32  A    between atoms: _76  and  _77
REMARK   33  A    between atoms: _79  and  _81
REMARK   34  A    between atoms: _81  and  _82
REMARK   35  A    between atoms: _81  and  _84
REMARK   36  A    between atoms: _84  and  _85
REMARK   37  A    between atoms: _85  and  _86
REMARK   38  A    between atoms: _86  and  _87
REMARK   39  A    between atoms: _96  and  _98
REMARK   40  A    between atoms: _98  and  _99
REMARK   41  A    between atoms: _98  and  _101
REMARK   42  A    between atoms: _101  and  _102
REMARK   43  A    between atoms: _102  and  _103
REMARK   44  A    between atoms: _103  and  _104
REMARK   45  A    between atoms: _104  and  _105
REMARK   46  A    between atoms: _109  and  _111
REMARK   47  A    between atoms: _111  and  _112
REMARK   48  A    between atoms: _115  and  _117
REMARK   49  A    between atoms: _117  and  _118
REMARK   50  A    between atoms: _117  and  _120
REMARK   51  A    between atoms: _120  and  _121
REMARK   52  A    between atoms: _121  and  _122
REMARK   53  A    between atoms: _122  and  _123
REMARK   54  A    between atoms: _132  and  _134
REMARK   55  A    between atoms: _134  and  _135
REMARK   56  A    between atoms: _134  and  _137
REMARK   57  A    between atoms: _137  and  _138
REMARK   58  A    between atoms: _138  and  _139
REMARK   59  A    between atoms: _139  and  _140
REMARK   60  A    between atoms: _149  and  _151
REMARK   61  A    between atoms: _151  and  _152
REMARK   62  A    between atoms: _151  and  _154
REMARK   63  A    between atoms: _154  and  _155
REMARK   64  A    between atoms: _160  and  _161
REMARK   65  A    between atoms: _163  and  _165
REMARK   66  A    between atoms: _165  and  _166
REMARK   67  A    between atoms: _165  and  _168
REMARK   68  A    between atoms: _168  and  _169
REMARK   69  A    between atoms: _169  and  _170
REMARK   70  A    between atoms: _173  and  _175
REMARK   71  A    between atoms: _175  and  _176
REMARK   72  A    between atoms: _175  and  _178
REMARK   73  A    between atoms: _178  and  _179
REMARK   74  A    between atoms: _179  and  _180
REMARK   75  A    between atoms: _180  and  _181
REMARK   76  A    between atoms: _181  and  _182
REMARK   77  A    between atoms: _186  and  _188
REMARK   78  A    between atoms: _188  and  _189
REMARK   79  A    between atoms: _188  and  _191
REMARK   80  A    between atoms: _191  and  _192
REMARK   81  A    between atoms: _194  and  _196
REMARK   82  A    between atoms: _196  and  _197
REMARK   83  A    between atoms: _196  and  _199
REMARK   84  A    between atoms: _199  and  _200
REMARK   85  A    between atoms: _200  and  _201
REMARK   86  A    between atoms: _201  and  _202
REMARK   87  A    between atoms: _202  and  _203
REMARK   88  A    between atoms: _207  and  _209
REMARK   89  A    between atoms: _209  and  _210
REMARK   90  A    between atoms: _209  and  _212
REMARK   91  A    between atoms: _212  and  _213
REMARK   92  A    between atoms: _213  and  _214
REMARK   93  A    between atoms: _214  and  _215
REMARK   94  A    between atoms: _224  and  _226
REMARK   95  A    between atoms: _226  and  _227
REMARK   96  A    between atoms: _226  and  _229
REMARK   97  A    between atoms: _229  and  _230
REMARK   98  A    between atoms: _232  and  _234
REMARK   99  A    between atoms: _234  and  _235
REMARK  100  A    between atoms: _234  and  _237
REMARK  101  A    between atoms: _237  and  _238
REMARK  102  A    between atoms: _244  and  _246
REMARK  103  A    between atoms: _246  and  _247
REMARK  104  A    between atoms: _246  and  _249
REMARK  105  A    between atoms: _249  and  _250
REMARK  106  A    between atoms: _255  and  _256
REMARK  107  A    between atoms: _258  and  _260
REMARK  108  A    between atoms: _260  and  _261
REMARK  109  A    between atoms: _260  and  _263
REMARK  110  A    between atoms: _263  and  _264
REMARK  111  A    between atoms: _264  and  _265
REMARK  112  A    between atoms: _265  and  _266
REMARK  113  A    between atoms: _275  and  _277
REMARK  114  A    between atoms: _277  and  _278
REMARK  115  A    between atoms: _277  and  _280
REMARK  116  A    between atoms: _280  and  _281
REMARK  117  A    between atoms: _283  and  _285
REMARK  118  A    between atoms: _285  and  _286
REMARK  119  A    between atoms: _285  and  _288
REMARK  120  A    between atoms: _288  and  _289
REMARK  121  A    between atoms: _292  and  _294
REMARK  122  A    between atoms: _294  and  _295
REMARK  123  A    between atoms: _294  and  _297
REMARK  124  A    between atoms: _297  and  _298
REMARK  125  A    between atoms: _301  and  _303
REMARK  126  A    between atoms: _303  and  _304
REMARK  127  A    between atoms: _303  and  _306
REMARK  128  A    between atoms: _306  and  _307
REMARK  129  A    between atoms: _307  and  _308
REMARK  130  A    between atoms: _310  and  _312
REMARK  131  A    between atoms: _312  and  _313
REMARK  132  A    between atoms: _312  and  _315
REMARK  133  A    between atoms: _318  and  _320
REMARK  134  A    between atoms: _320  and  _321
REMARK  135  A    between atoms: _320  and  _323
REMARK  136  A    between atoms: _323  and  _324
REMARK  137  A    between atoms: _324  and  _325
REMARK  138  A    between atoms: _328  and  _330
REMARK  139  A    between atoms: _330  and  _331
REMARK  140  A    between atoms: _330  and  _333
REMARK  141  A    between atoms: _333  and  _334
REMARK  142  A    between atoms: _334  and  _335
REMARK  143  A    between atoms: _335  and  _336
REMARK  144  A    between atoms: _336  and  _337
REMARK  145  A    between atoms: _341  and  _343
REMARK  146  A    between atoms: _343  and  _344
REMARK  147  A    between atoms: _343  and  _346
REMARK  148  A    between atoms: _346  and  _347
REMARK  149  A    between atoms: _347  and  _348
REMARK  150  A    between atoms: _348  and  _349
REMARK  151  A    between atoms: _349  and  _350
REMARK  152  A    between atoms: _354  and  _356
REMARK  153  A    between atoms: _356  and  _357
REMARK  154  A    between atoms: _356  and  _359
REMARK  155  A    between atoms: _359  and  _360
REMARK  156  A    between atoms: _366  and  _368
REMARK  157  A    between atoms: _368  and  _369
REMARK  158  A    between atoms: _368  and  _371
REMARK  159  A    between atoms: _371  and  _372
REMARK  160  A    between atoms: _374  and  _376
REMARK  161  A    between atoms: _376  and  _377
REMARK  162  A    between atoms: _376  and  _379
REMARK  163  A    between atoms: _379  and  _380
REMARK  164  A    between atoms: _380  and  _381
REMARK  165  A    between atoms: _381  and  _382
REMARK  166  A    between atoms: _382  and  _383
REMARK  167  A    between atoms: _387  and  _389
REMARK  168  A    between atoms: _389  and  _390
REMARK  169  A    between atoms: _389  and  _392
REMARK  170  A    between atoms: _392  and  _393
REMARK  171  A    between atoms: _399  and  _401
REMARK  172  A    between atoms: _401  and  _402
REMARK  173  A    between atoms: _401  and  _404
REMARK  174  A    between atoms: _404  and  _405
REMARK  175  A    between atoms: _408  and  _410
REMARK  176  A    between atoms: _410  and  _411
REMARK  177  A    between atoms: _410  and  _413
REMARK  178  A    between atoms: _413  and  _414
REMARK  179  A    between atoms: _419  and  _421
REMARK  180  A    between atoms: _421  and  _422
REMARK  181  A    between atoms: _424  and  _426
REMARK  182  A    between atoms: _426  and  _427
REMARK  183  A    between atoms: _426  and  _429
REMARK  184  A    between atoms: _429  and  _430
REMARK                            x       y       z     vdW  Elec       q    Type
REMARK                         _______ _______ _______ _____ _____    ______ ____
ROOT
ATOM      1  O   HOH     1      18.140  13.595  15.766  0.00  0.00    +0.000 OA
ENDROOT
TORSDOF 0
REMARK  Name = ../refined-set-2016/3g3r/3g3r_pocket.pdb
REMARK  184 active torsions:
REMARK  status: ('A' for Active; 'I' for Inactive)
REMARK    1  A    between atoms: _1  and  _3
REMARK    2  A    between atoms: _3  and  _4
REMARK    3  A    between atoms: _3  and  _6
REMARK    4  A    between atoms: _6  and  _7
REMARK    5  A    between atoms: _10  and  _12
REMARK    6  A    between atoms: _12  and  _13
REMARK    7  A    between atoms: _12  and  _15
REMARK    8  A    between atoms: _15  and  _16
REMARK    9  A    between atoms: _16  and  _17
REMARK   10  A    between atoms: _17  and  _18
REMARK   11  A    between atoms: _18  and  _19
REMARK   12  A    between atoms: _23  and  _25
REMARK   13  A    between atoms: _25  and  _26
REMARK   14  A    between atoms: _25  and  _28
REMARK   15  A    between atoms: _28  and  _29
REMARK   16  A    between atoms: _39  and  _41
REMARK   17  A    between atoms: _41  and  _42
REMARK   18  A    between atoms: _41  and  _44
REMARK   19  A    between atoms: _44  and  _45
REMARK   20  A    between atoms: _48  and  _50
REMARK   21  A    between atoms: _50  and  _51
REMARK   22  A    between atoms: _50  and  _53
REMARK   23  A    between atoms: _53  and  _54
REMARK   24  A    between atoms: _57  and  _59
REMARK   25  A    between atoms: _59  and  _60
REMARK   26  A    between atoms: _59  and  _62
REMARK   27  A    between atoms: _62  and  _63
REMARK   28  A    between atoms: _65  and  _67
REMARK   29  A    between atoms: _67  and  _68
REMARK   30  A    between atoms: _67  and  _70
REMARK   31  A    between atoms: _70  and  _71
REMARK   32  A    between atoms: _76  and  _77
REMARK   33  A    between atoms: _79  and  _81
REMARK   34  A    between atoms: _81  and  _82
REMARK   35  A    between atoms: _81  and  _84
REMARK   36  A    between atoms: _84  and  _85
REMARK   37  A    between atoms: _85  and  _86
REMARK   38  A    between atoms: _86  and  _87
REMARK   39  A    between atoms: _96  and  _98
REMARK   40  A    between atoms: _98  and  _99
REMARK   41  A    between atoms: _98  and  _101
REMARK   42  A    between atoms: _101  and  _102
REMARK   43  A    between atoms: _102  and  _103
REMARK   44  A    between atoms: _103  and  _104
REMARK   45  A    between atoms: _104  and  _105
REMARK   46  A    between atoms: _109  and  _111
REMARK   47  A    between atoms: _111  and  _112
REMARK   48  A    between atoms: _115  and  _117
REMARK   49  A    between atoms: _117  and  _118
REMARK   50  A    between atoms: _117  and  _120
REMARK   51  A    between atoms: _120  and  _121
REMARK   52  A    between atoms: _121  and  _122
REMARK   53  A    between atoms: _122  and  _123
REMARK   54  A    between atoms: _132  and  _134
REMARK   55  A    between atoms: _134  and  _135
REMARK   56  A    between atoms: _134  and  _137
REMARK   57  A    between atoms: _137  and  _138
REMARK   58  A    between atoms: _138  and  _139
REMARK   59  A    between atoms: _139  and  _140
REMARK   60  A    between atoms: _149  and  _151
REMARK   61  A    between atoms: _151  and  _152
REMARK   62  A    between atoms: _151  and  _154
REMARK   63  A    between atoms: _154  and  _155
REMARK   64  A    between atoms: _160  and  _161
REMARK   65  A    between atoms: _163  and  _165
REMARK   66  A    between atoms: _165  and  _166
REMARK   67  A    between atoms: _165  and  _168
REMARK   68  A    between atoms: _168  and  _169
REMARK   69  A    between atoms: _169  and  _170
REMARK   70  A    between atoms: _173  and  _175
REMARK   71  A    between atoms: _175  and  _176
REMARK   72  A    between atoms: _175  and  _178
REMARK   73  A    between atoms: _178  and  _179
REMARK   74  A    between atoms: _179  and  _180
REMARK   75  A    between atoms: _180  and  _181
REMARK   76  A    between atoms: _181  and  _182
REMARK   77  A    between atoms: _186  and  _188
REMARK   78  A    between atoms: _188  and  _189
REMARK   79  A    between atoms: _188  and  _191
REMARK   80  A    between atoms: _191  and  _192
REMARK   81  A    between atoms: _194  and  _196
REMARK   82  A    between atoms: _196  and  _197
REMARK   83  A    between atoms: _196  and  _199
REMARK   84  A    between atoms: _199  and  _200
REMARK   85  A    between atoms: _200  and  _201
REMARK   86  A    between atoms: _201  and  _202
REMARK   87  A    between atoms: _202  and  _203
REMARK   88  A    between atoms: _207  and  _209
REMARK   89  A    between atoms: _209  and  _210
REMARK   90  A    between atoms: _209  and  _212
REMARK   91  A    between atoms: _212  and  _213
REMARK   92  A    between atoms: _213  and  _214
REMARK   93  A    between atoms: _214  and  _215
REMARK   94  A    between atoms: _224  and  _226
REMARK   95  A    between atoms: _226  and  _227
REMARK   96  A    between atoms: _226  and  _229
REMARK   97  A    between atoms: _229  and  _230
REMARK   98  A    between atoms: _232  and  _234
REMARK   99  A    between atoms: _234  and  _235
REMARK  100  A    between atoms: _234  and  _237
REMARK  101  A    between atoms: _237  and  _238
REMARK  102  A    between atoms: _244  and  _246
REMARK  103  A    between atoms: _246  and  _247
REMARK  104  A    between atoms: _246  and  _249
REMARK  105  A    between atoms: _249  and  _250
REMARK  106  A    between atoms: _255  and  _256
REMARK  107  A    between atoms: _258  and  _260
REMARK  108  A    between atoms: _260  and  _261
REMARK  109  A    between atoms: _260  and  _263
REMARK  110  A    between atoms: _263  and  _264
REMARK  111  A    between atoms: _264  and  _265
REMARK  112  A    between atoms: _265  and  _266
REMARK  113  A    between atoms: _275  and  _277
REMARK  114  A    between atoms: _277  and  _278
REMARK  115  A    between atoms: _277  and  _280
REMARK  116  A    between atoms: _280  and  _281
REMARK  117  A    between atoms: _283  and  _285
REMARK  118  A    between atoms: _285  and  _286
REMARK  119  A    between atoms: _285  and  _288
REMARK  120  A    between atoms: _288  and  _289
REMARK  121  A    between atoms: _292  and  _294
REMARK  122  A    between atoms: _294  and  _295
REMARK  123  A    between atoms: _294  and  _297
REMARK  124  A    between atoms: _297  and  _298
REMARK  125  A    between atoms: _301  and  _303
REMARK  126  A    between atoms: _303  and  _304
REMARK  127  A    between atoms: _303  and  _306
REMARK  128  A    between atoms: _306  and  _307
REMARK  129  A    between atoms: _307  and  _308
REMARK  130  A    between atoms: _310  and  _312
REMARK  131  A    between atoms: _312  and  _313
REMARK  132  A    between atoms: _312  and  _315
REMARK  133  A    between atoms: _318  and  _320
REMARK  134  A    between atoms: _320  and  _321
REMARK  135  A    between atoms: _320  and  _323
REMARK  136  A    between atoms: _323  and  _324
REMARK  137  A    between atoms: _324  and  _325
REMARK  138  A    between atoms: _328  and  _330
REMARK  139  A    between atoms: _330  and  _331
REMARK  140  A    between atoms: _330  and  _333
REMARK  141  A    between atoms: _333  and  _334
REMARK  142  A    between atoms: _334  and  _335
REMARK  143  A    between atoms: _335  and  _336
REMARK  144  A    between atoms: _336  and  _337
REMARK  145  A    between atoms: _341  and  _343
REMARK  146  A    between atoms: _343  and  _344
REMARK  147  A    between atoms: _343  and  _346
REMARK  148  A    between atoms: _346  and  _347
REMARK  149  A    between atoms: _347  and  _348
REMARK  150  A    between atoms: _348  and  _349
REMARK  151  A    between atoms: _349  and  _350
REMARK  152  A    between atoms: _354  and  _356
REMARK  153  A    between atoms: _356  and  _357
REMARK  154  A    between atoms: _356  and  _359
REMARK  155  A    between atoms: _359  and  _360
REMARK  156  A    between atoms: _366  and  _368
REMARK  157  A    between atoms: _368  and  _369
REMARK  158  A    between atoms: _368  and  _371
REMARK  159  A    between atoms: _371  and  _372
REMARK  160  A    between atoms: _374  and  _376
REMARK  161  A    between atoms: _376  and  _377
REMARK  162  A    between atoms: _376  and  _379
REMARK  163  A    between atoms: _379  and  _380
REMARK  164  A    between atoms: _380  and  _381
REMARK  165  A    between atoms: _381  and  _382
REMARK  166  A    between atoms: _382  and  _383
REMARK  167  A    between atoms: _387  and  _389
REMARK  168  A    between atoms: _389  and  _390
REMARK  169  A    between atoms: _389  and  _392
REMARK  170  A    between atoms: _392  and  _393
REMARK  171  A    between atoms: _399  and  _401
REMARK  172  A    between atoms: _401  and  _402
REMARK  173  A    between atoms: _401  and  _404
REMARK  174  A    between atoms: _404  and  _405
REMARK  175  A    between atoms: _408  and  _410
REMARK  176  A    between atoms: _410  and  _411
REMARK  177  A    between atoms: _410  and  _413
REMARK  178  A    between atoms: _413  and  _414
REMARK  179  A    between atoms: _419  and  _421
REMARK  180  A    between atoms: _421  and  _422
REMARK  181  A    between atoms: _424  and  _426
REMARK  182  A    between atoms: _426  and  _427
REMARK  183  A    between atoms: _426  and  _429
REMARK  184  A    between atoms: _429  and  _430
REMARK                            x       y       z     vdW  Elec       q    Type
REMARK                         _______ _______ _______ _____ _____    ______ ____
ROOT
ATOM      1  O   HOH     1      10.238   7.772  16.673  0.00  0.00    +0.000 OA
ENDROOT
TORSDOF 0
REMARK  Name = ../refined-set-2016/3g3r/3g3r_pocket.pdb
REMARK  184 active torsions:
REMARK  status: ('A' for Active; 'I' for Inactive)
REMARK    1  A    between atoms: _1  and  _3
REMARK    2  A    between atoms: _3  and  _4
REMARK    3  A    between atoms: _3  and  _6
REMARK    4  A    between atoms: _6  and  _7
REMARK    5  A    between atoms: _10  and  _12
REMARK    6  A    between atoms: _12  and  _13
REMARK    7  A    between atoms: _12  and  _15
REMARK    8  A    between atoms: _15  and  _16
REMARK    9  A    between atoms: _16  and  _17
REMARK   10  A    between atoms: _17  and  _18
REMARK   11  A    between atoms: _18  and  _19
REMARK   12  A    between atoms: _23  and  _25
REMARK   13  A    between atoms: _25  and  _26
REMARK   14  A    between atoms: _25  and  _28
REMARK   15  A    between atoms: _28  and  _29
REMARK   16  A    between atoms: _39  and  _41
REMARK   17  A    between atoms: _41  and  _42
REMARK   18  A    between atoms: _41  and  _44
REMARK   19  A    between atoms: _44  and  _45
REMARK   20  A    between atoms: _48  and  _50
REMARK   21  A    between atoms: _50  and  _51
REMARK   22  A    between atoms: _50  and  _53
REMARK   23  A    between atoms: _53  and  _54
REMARK   24  A    between atoms: _57  and  _59
REMARK   25  A    between atoms: _59  and  _60
REMARK   26  A    between atoms: _59  and  _62
REMARK   27  A    between atoms: _62  and  _63
REMARK   28  A    between atoms: _65  and  _67
REMARK   29  A    between atoms: _67  and  _68
REMARK   30  A    between atoms: _67  and  _70
REMARK   31  A    between atoms: _70  and  _71
REMARK   32  A    between atoms: _76  and  _77
REMARK   33  A    between atoms: _79  and  _81
REMARK   34  A    between atoms: _81  and  _82
REMARK   35  A    between atoms: _81  and  _84
REMARK   36  A    between atoms: _84  and  _85
REMARK   37  A    between atoms: _85  and  _86
REMARK   38  A    between atoms: _86  and  _87
REMARK   39  A    between atoms: _96  and  _98
REMARK   40  A    between atoms: _98  and  _99
REMARK   41  A    between atoms: _98  and  _101
REMARK   42  A    between atoms: _101  and  _102
REMARK   43  A    between atoms: _102  and  _103
REMARK   44  A    between atoms: _103  and  _104
REMARK   45  A    between atoms: _104  and  _105
REMARK   46  A    between atoms: _109  and  _111
REMARK   47  A    between atoms: _111  and  _112
REMARK   48  A    between atoms: _115  and  _117
REMARK   49  A    between atoms: _117  and  _118
REMARK   50  A    between atoms: _117  and  _120
REMARK   51  A    between atoms: _120  and  _121
REMARK   52  A    between atoms: _121  and  _122
REMARK   53  A    between atoms: _122  and  _123
REMARK   54  A    between atoms: _132  and  _134
REMARK   55  A    between atoms: _134  and  _135
REMARK   56  A    between atoms: _134  and  _137
REMARK   57  A    between atoms: _137  and  _138
REMARK   58  A    between atoms: _138  and  _139
REMARK   59  A    between atoms: _139  and  _140
REMARK   60  A    between atoms: _149  and  _151
REMARK   61  A    between atoms: _151  and  _152
REMARK   62  A    between atoms: _151  and  _154
REMARK   63  A    between atoms: _154  and  _155
REMARK   64  A    between atoms: _160  and  _161
REMARK   65  A    between atoms: _163  and  _165
REMARK   66  A    between atoms: _165  and  _166
REMARK   67  A    between atoms: _165  and  _168
REMARK   68  A    between atoms: _168  and  _169
REMARK   69  A    between atoms: _169  and  _170
REMARK   70  A    between atoms: _173  and  _175
REMARK   71  A    between atoms: _175  and  _176
REMARK   72  A    between atoms: _175  and  _178
REMARK   73  A    between atoms: _178  and  _179
REMARK   74  A    between atoms: _179  and  _180
REMARK   75  A    between atoms: _180  and  _181
REMARK   76  A    between atoms: _181  and  _182
REMARK   77  A    between atoms: _186  and  _188
REMARK   78  A    between atoms: _188  and  _189
REMARK   79  A    between atoms: _188  and  _191
REMARK   80  A    between atoms: _191  and  _192
REMARK   81  A    between atoms: _194  and  _196
REMARK   82  A    between atoms: _196  and  _197
REMARK   83  A    between atoms: _196  and  _199
REMARK   84  A    between atoms: _199  and  _200
REMARK   85  A    between atoms: _200  and  _201
REMARK   86  A    between atoms: _201  and  _202
REMARK   87  A    between atoms: _202  and  _203
REMARK   88  A    between atoms: _207  and  _209
REMARK   89  A    between atoms: _209  and  _210
REMARK   90  A    between atoms: _209  and  _212
REMARK   91  A    between atoms: _212  and  _213
REMARK   92  A    between atoms: _213  and  _214
REMARK   93  A    between atoms: _214  and  _215
REMARK   94  A    between atoms: _224  and  _226
REMARK   95  A    between atoms: _226  and  _227
REMARK   96  A    between atoms: _226  and  _229
REMARK   97  A    between atoms: _229  and  _230
REMARK   98  A    between atoms: _232  and  _234
REMARK   99  A    between atoms: _234  and  _235
REMARK  100  A    between atoms: _234  and  _237
REMARK  101  A    between atoms: _237  and  _238
REMARK  102  A    between atoms: _244  and  _246
REMARK  103  A    between atoms: _246  and  _247
REMARK  104  A    between atoms: _246  and  _249
REMARK  105  A    between atoms: _249  and  _250
REMARK  106  A    between atoms: _255  and  _256
REMARK  107  A    between atoms: _258  and  _260
REMARK  108  A    between atoms: _260  and  _261
REMARK  109  A    between atoms: _260  and  _263
REMARK  110  A    between atoms: _263  and  _264
REMARK  111  A    between atoms: _264  and  _265
REMARK  112  A    between atoms: _265  and  _266
REMARK  113  A    between atoms: _275  and  _277
REMARK  114  A    between atoms: _277  and  _278
REMARK  115  A    between atoms: _277  and  _280
REMARK  116  A    between atoms: _280  and  _281
REMARK  117  A    between atoms: _283  and  _285
REMARK  118  A    between atoms: _285  and  _286
REMARK  119  A    between atoms: _285  and  _288
REMARK  120  A    between atoms: _288  and  _289
REMARK  121  A    between atoms: _292  and  _294
REMARK  122  A    between atoms: _294  and  _295
REMARK  123  A    between atoms: _294  and  _297
REMARK  124  A    between atoms: _297  and  _298
REMARK  125  A    between atoms: _301  and  _303
REMARK  126  A    between atoms: _303  and  _304
REMARK  127  A    between atoms: _303  and  _306
REMARK  128  A    between atoms: _306  and  _307
REMARK  129  A    between atoms: _307  and  _308
REMARK  130  A    between atoms: _310  and  _312
REMARK  131  A    between atoms: _312  and  _313
REMARK  132  A    between atoms: _312  and  _315
REMARK  133  A    between atoms: _318  and  _320
REMARK  134  A    between atoms: _320  and  _321
REMARK  135  A    between atoms: _320  and  _323
REMARK  136  A    between atoms: _323  and  _324
REMARK  137  A    between atoms: _324  and  _325
REMARK  138  A    between atoms: _328  and  _330
REMARK  139  A    between atoms: _330  and  _331
REMARK  140  A    between atoms: _330  and  _333
REMARK  141  A    between atoms: _333  and  _334
REMARK  142  A    between atoms: _334  and  _335
REMARK  143  A    between atoms: _335  and  _336
REMARK  144  A    between atoms: _336  and  _337
REMARK  145  A    between atoms: _341  and  _343
REMARK  146  A    between atoms: _343  and  _344
REMARK  147  A    between atoms: _343  and  _346
REMARK  148  A    between atoms: _346  and  _347
REMARK  149  A    between atoms: _347  and  _348
REMARK  150  A    between atoms: _348  and  _349
REMARK  151  A    between atoms: _349  and  _350
REMARK  152  A    between atoms: _354  and  _356
REMARK  153  A    between atoms: _356  and  _357
REMARK  154  A    between atoms: _356  and  _359
REMARK  155  A    between atoms: _359  and  _360
REMARK  156  A    between atoms: _366  and  _368
REMARK  157  A    between atoms: _368  and  _369
REMARK  158  A    between atoms: _368  and  _371
REMARK  159  A    between atoms: _371  and  _372
REMARK  160  A    between atoms: _374  and  _376
REMARK  161  A    between atoms: _376  and  _377
REMARK  162  A    between atoms: _376  and  _379
REMARK  163  A    between atoms: _379  and  _380
REMARK  164  A    between atoms: _380  and  _381
REMARK  165  A    between atoms: _381  and  _382
REMARK  166  A    between atoms: _382  and  _383
REMARK  167  A    between atoms: _387  and  _389
REMARK  168  A    between atoms: _389  and  _390
REMARK  169  A    between atoms: _389  and  _392
REMARK  170  A    between atoms: _392  and  _393
REMARK  171  A    between atoms: _399  and  _401
REMARK  172  A    between atoms: _401  and  _402
REMARK  173  A    between atoms: _401  and  _404
REMARK  174  A    between atoms: _404  and  _405
REMARK  175  A    between atoms: _408  and  _410
REMARK  176  A    between atoms: _410  and  _411
REMARK  177  A    between atoms: _410  and  _413
REMARK  178  A    between atoms: _413  and  _414
REMARK  179  A    between atoms: _419  and  _421
REMARK  180  A    between atoms: _421  and  _422
REMARK  181  A    between atoms: _424  and  _426
REMARK  182  A    between atoms: _426  and  _427
REMARK  183  A    between atoms: _426  and  _429
REMARK  184  A    between atoms: _429  and  _430
REMARK                            x       y       z     vdW  Elec       q    Type
REMARK                         _______ _______ _______ _____ _____    ______ ____
ROOT
ATOM      1  O   HOH     1      18.298  15.777  16.850  0.00  0.00    +0.000 OA
ENDROOT
TORSDOF 0
REMARK  Name = ../refined-set-2016/3g3r/3g3r_pocket.pdb
REMARK  184 active torsions:
REMARK  status: ('A' for Active; 'I' for Inactive)
REMARK    1  A    between atoms: _1  and  _3
REMARK    2  A    between atoms: _3  and  _4
REMARK    3  A    between atoms: _3  and  _6
REMARK    4  A    between atoms: _6  and  _7
REMARK    5  A    between atoms: _10  and  _12
REMARK    6  A    between atoms: _12  and  _13
REMARK    7  A    between atoms: _12  and  _15
REMARK    8  A    between atoms: _15  and  _16
REMARK    9  A    between atoms: _16  and  _17
REMARK   10  A    between atoms: _17  and  _18
REMARK   11  A    between atoms: _18  and  _19
REMARK   12  A    between atoms: _23  and  _25
REMARK   13  A    between atoms: _25  and  _26
REMARK   14  A    between atoms: _25  and  _28
REMARK   15  A    between atoms: _28  and  _29
REMARK   16  A    between atoms: _39  and  _41
REMARK   17  A    between atoms: _41  and  _42
REMARK   18  A    between atoms: _41  and  _44
REMARK   19  A    between atoms: _44  and  _45
REMARK   20  A    between atoms: _48  and  _50
REMARK   21  A    between atoms: _50  and  _51
REMARK   22  A    between atoms: _50  and  _53
REMARK   23  A    between atoms: _53  and  _54
REMARK   24  A    between atoms: _57  and  _59
REMARK   25  A    between atoms: _59  and  _60
REMARK   26  A    between atoms: _59  and  _62
REMARK   27  A    between atoms: _62  and  _63
REMARK   28  A    between atoms: _65  and  _67
REMARK   29  A    between atoms: _67  and  _68
REMARK   30  A    between atoms: _67  and  _70
REMARK   31  A    between atoms: _70  and  _71
REMARK   32  A    between atoms: _76  and  _77
REMARK   33  A    between atoms: _79  and  _81
REMARK   34  A    between atoms: _81  and  _82
REMARK   35  A    between atoms: _81  and  _84
REMARK   36  A    between atoms: _84  and  _85
REMARK   37  A    between atoms: _85  and  _86
REMARK   38  A    between atoms: _86  and  _87
REMARK   39  A    between atoms: _96  and  _98
REMARK   40  A    between atoms: _98  and  _99
REMARK   41  A    between atoms: _98  and  _101
REMARK   42  A    between atoms: _101  and  _102
REMARK   43  A    between atoms: _102  and  _103
REMARK   44  A    between atoms: _103  and  _104
REMARK   45  A    between atoms: _104  and  _105
REMARK   46  A    between atoms: _109  and  _111
REMARK   47  A    between atoms: _111  and  _112
REMARK   48  A    between atoms: _115  and  _117
REMARK   49  A    between atoms: _117  and  _118
REMARK   50  A    between atoms: _117  and  _120
REMARK   51  A    between atoms: _120  and  _121
REMARK   52  A    between atoms: _121  and  _122
REMARK   53  A    between atoms: _122  and  _123
REMARK   54  A    between atoms: _132  and  _134
REMARK   55  A    between atoms: _134  and  _135
REMARK   56  A    between atoms: _134  and  _137
REMARK   57  A    between atoms: _137  and  _138
REMARK   58  A    between atoms: _138  and  _139
REMARK   59  A    between atoms: _139  and  _140
REMARK   60  A    between atoms: _149  and  _151
REMARK   61  A    between atoms: _151  and  _152
REMARK   62  A    between atoms: _151  and  _154
REMARK   63  A    between atoms: _154  and  _155
REMARK   64  A    between atoms: _160  and  _161
REMARK   65  A    between atoms: _163  and  _165
REMARK   66  A    between atoms: _165  and  _166
REMARK   67  A    between atoms: _165  and  _168
REMARK   68  A    between atoms: _168  and  _169
REMARK   69  A    between atoms: _169  and  _170
REMARK   70  A    between atoms: _173  and  _175
REMARK   71  A    between atoms: _175  and  _176
REMARK   72  A    between atoms: _175  and  _178
REMARK   73  A    between atoms: _178  and  _179
REMARK   74  A    between atoms: _179  and  _180
REMARK   75  A    between atoms: _180  and  _181
REMARK   76  A    between atoms: _181  and  _182
REMARK   77  A    between atoms: _186  and  _188
REMARK   78  A    between atoms: _188  and  _189
REMARK   79  A    between atoms: _188  and  _191
REMARK   80  A    between atoms: _191  and  _192
REMARK   81  A    between atoms: _194  and  _196
REMARK   82  A    between atoms: _196  and  _197
REMARK   83  A    between atoms: _196  and  _199
REMARK   84  A    between atoms: _199  and  _200
REMARK   85  A    between atoms: _200  and  _201
REMARK   86  A    between atoms: _201  and  _202
REMARK   87  A    between atoms: _202  and  _203
REMARK   88  A    between atoms: _207  and  _209
REMARK   89  A    between atoms: _209  and  _210
REMARK   90  A    between atoms: _209  and  _212
REMARK   91  A    between atoms: _212  and  _213
REMARK   92  A    between atoms: _213  and  _214
REMARK   93  A    between atoms: _214  and  _215
REMARK   94  A    between atoms: _224  and  _226
REMARK   95  A    between atoms: _226  and  _227
REMARK   96  A    between atoms: _226  and  _229
REMARK   97  A    between atoms: _229  and  _230
REMARK   98  A    between atoms: _232  and  _234
REMARK   99  A    between atoms: _234  and  _235
REMARK  100  A    between atoms: _234  and  _237
REMARK  101  A    between atoms: _237  and  _238
REMARK  102  A    between atoms: _244  and  _246
REMARK  103  A    between atoms: _246  and  _247
REMARK  104  A    between atoms: _246  and  _249
REMARK  105  A    between atoms: _249  and  _250
REMARK  106  A    between atoms: _255  and  _256
REMARK  107  A    between atoms: _258  and  _260
REMARK  108  A    between atoms: _260  and  _261
REMARK  109  A    between atoms: _260  and  _263
REMARK  110  A    between atoms: _263  and  _264
REMARK  111  A    between atoms: _264  and  _265
REMARK  112  A    between atoms: _265  and  _266
REMARK  113  A    between atoms: _275  and  _277
REMARK  114  A    between atoms: _277  and  _278
REMARK  115  A    between atoms: _277  and  _280
REMARK  116  A    between atoms: _280  and  _281
REMARK  117  A    between atoms: _283  and  _285
REMARK  118  A    between atoms: _285  and  _286
REMARK  119  A    between atoms: _285  and  _288
REMARK  120  A    between atoms: _288  and  _289
REMARK  121  A    between atoms: _292  and  _294
REMARK  122  A    between atoms: _294  and  _295
REMARK  123  A    between atoms: _294  and  _297
REMARK  124  A    between atoms: _297  and  _298
REMARK  125  A    between atoms: _301  and  _303
REMARK  126  A    between atoms: _303  and  _304
REMARK  127  A    between atoms: _303  and  _306
REMARK  128  A    between atoms: _306  and  _307
REMARK  129  A    between atoms: _307  and  _308
REMARK  130  A    between atoms: _310  and  _312
REMARK  131  A    between atoms: _312  and  _313
REMARK  132  A    between atoms: _312  and  _315
REMARK  133  A    between atoms: _318  and  _320
REMARK  134  A    between atoms: _320  and  _321
REMARK  135  A    between atoms: _320  and  _323
REMARK  136  A    between atoms: _323  and  _324
REMARK  137  A    between atoms: _324  and  _325
REMARK  138  A    between atoms: _328  and  _330
REMARK  139  A    between atoms: _330  and  _331
REMARK  140  A    between atoms: _330  and  _333
REMARK  141  A    between atoms: _333  and  _334
REMARK  142  A    between atoms: _334  and  _335
REMARK  143  A    between atoms: _335  and  _336
REMARK  144  A    between atoms: _336  and  _337
REMARK  145  A    between atoms: _341  and  _343
REMARK  146  A    between atoms: _343  and  _344
REMARK  147  A    between atoms: _343  and  _346
REMARK  148  A    between atoms: _346  and  _347
REMARK  149  A    between atoms: _347  and  _348
REMARK  150  A    between atoms: _348  and  _349
REMARK  151  A    between atoms: _349  and  _350
REMARK  152  A    between atoms: _354  and  _356
REMARK  153  A    between atoms: _356  and  _357
REMARK  154  A    between atoms: _356  and  _359
REMARK  155  A    between atoms: _359  and  _360
REMARK  156  A    between atoms: _366  and  _368
REMARK  157  A    between atoms: _368  and  _369
REMARK  158  A    between atoms: _368  and  _371
REMARK  159  A    between atoms: _371  and  _372
REMARK  160  A    between atoms: _374  and  _376
REMARK  161  A    between atoms: _376  and  _377
REMARK  162  A    between atoms: _376  and  _379
REMARK  163  A    between atoms: _379  and  _380
REMARK  164  A    between atoms: _380  and  _381
REMARK  165  A    between atoms: _381  and  _382
REMARK  166  A    between atoms: _382  and  _383
REMARK  167  A    between atoms: _387  and  _389
REMARK  168  A    between atoms: _389  and  _390
REMARK  169  A    between atoms: _389  and  _392
REMARK  170  A    between atoms: _392  and  _393
REMARK  171  A    between atoms: _399  and  _401
REMARK  172  A    between atoms: _401  and  _402
REMARK  173  A    between atoms: _401  and  _404
REMARK  174  A    between atoms: _404  and  _405
REMARK  175  A    between atoms: _408  and  _410
REMARK  176  A    between atoms: _410  and  _411
REMARK  177  A    between atoms: _410  and  _413
REMARK  178  A    between atoms: _413  and  _414
REMARK  179  A    between atoms: _419  and  _421
REMARK  180  A    between atoms: _421  and  _422
REMARK  181  A    between atoms: _424  and  _426
REMARK  182  A    between atoms: _426  and  _427
REMARK  183  A    between atoms: _426  and  _429
REMARK  184  A    between atoms: _429  and  _430
REMARK                            x       y       z     vdW  Elec       q    Type
REMARK                         _______ _______ _______ _____ _____    ______ ____
ROOT
ATOM      1  O   HOH     1      14.074  11.566  10.018  0.00  0.00    +0.000 OA
ENDROOT
TORSDOF 0
REMARK  Name = ../refined-set-2016/3g3r/3g3r_pocket.pdb
REMARK  184 active torsions:
REMARK  status: ('A' for Active; 'I' for Inactive)
REMARK    1  A    between atoms: _1  and  _3
REMARK    2  A    between atoms: _3  and  _4
REMARK    3  A    between atoms: _3  and  _6
REMARK    4  A    between atoms: _6  and  _7
REMARK    5  A    between atoms: _10  and  _12
REMARK    6  A    between atoms: _12  and  _13
REMARK    7  A    between atoms: _12  and  _15
REMARK    8  A    between atoms: _15  and  _16
REMARK    9  A    between atoms: _16  and  _17
REMARK   10  A    between atoms: _17  and  _18
REMARK   11  A    between atoms: _18  and  _19
REMARK   12  A    between atoms: _23  and  _25
REMARK   13  A    between atoms: _25  and  _26
REMARK   14  A    between atoms: _25  and  _28
REMARK   15  A    between atoms: _28  and  _29
REMARK   16  A    between atoms: _39  and  _41
REMARK   17  A    between atoms: _41  and  _42
REMARK   18  A    between atoms: _41  and  _44
REMARK   19  A    between atoms: _44  and  _45
REMARK   20  A    between atoms: _48  and  _50
REMARK   21  A    between atoms: _50  and  _51
REMARK   22  A    between atoms: _50  and  _53
REMARK   23  A    between atoms: _53  and  _54
REMARK   24  A    between atoms: _57  and  _59
REMARK   25  A    between atoms: _59  and  _60
REMARK   26  A    between atoms: _59  and  _62
REMARK   27  A    between atoms: _62  and  _63
REMARK   28  A    between atoms: _65  and  _67
REMARK   29  A    between atoms: _67  and  _68
REMARK   30  A    between atoms: _67  and  _70
REMARK   31  A    between atoms: _70  and  _71
REMARK   32  A    between atoms: _76  and  _77
REMARK   33  A    between atoms: _79  and  _81
REMARK   34  A    between atoms: _81  and  _82
REMARK   35  A    between atoms: _81  and  _84
REMARK   36  A    between atoms: _84  and  _85
REMARK   37  A    between atoms: _85  and  _86
REMARK   38  A    between atoms: _86  and  _87
REMARK   39  A    between atoms: _96  and  _98
REMARK   40  A    between atoms: _98  and  _99
REMARK   41  A    between atoms: _98  and  _101
REMARK   42  A    between atoms: _101  and  _102
REMARK   43  A    between atoms: _102  and  _103
REMARK   44  A    between atoms: _103  and  _104
REMARK   45  A    between atoms: _104  and  _105
REMARK   46  A    between atoms: _109  and  _111
REMARK   47  A    between atoms: _111  and  _112
REMARK   48  A    between atoms: _115  and  _117
REMARK   49  A    between atoms: _117  and  _118
REMARK   50  A    between atoms: _117  and  _120
REMARK   51  A    between atoms: _120  and  _121
REMARK   52  A    between atoms: _121  and  _122
REMARK   53  A    between atoms: _122  and  _123
REMARK   54  A    between atoms: _132  and  _134
REMARK   55  A    between atoms: _134  and  _135
REMARK   56  A    between atoms: _134  and  _137
REMARK   57  A    between atoms: _137  and  _138
REMARK   58  A    between atoms: _138  and  _139
REMARK   59  A    between atoms: _139  and  _140
REMARK   60  A    between atoms: _149  and  _151
REMARK   61  A    between atoms: _151  and  _152
REMARK   62  A    between atoms: _151  and  _154
REMARK   63  A    between atoms: _154  and  _155
REMARK   64  A    between atoms: _160  and  _161
REMARK   65  A    between atoms: _163  and  _165
REMARK   66  A    between atoms: _165  and  _166
REMARK   67  A    between atoms: _165  and  _168
REMARK   68  A    between atoms: _168  and  _169
REMARK   69  A    between atoms: _169  and  _170
REMARK   70  A    between atoms: _173  and  _175
REMARK   71  A    between atoms: _175  and  _176
REMARK   72  A    between atoms: _175  and  _178
REMARK   73  A    between atoms: _178  and  _179
REMARK   74  A    between atoms: _179  and  _180
REMARK   75  A    between atoms: _180  and  _181
REMARK   76  A    between atoms: _181  and  _182
REMARK   77  A    between atoms: _186  and  _188
REMARK   78  A    between atoms: _188  and  _189
REMARK   79  A    between atoms: _188  and  _191
REMARK   80  A    between atoms: _191  and  _192
REMARK   81  A    between atoms: _194  and  _196
REMARK   82  A    between atoms: _196  and  _197
REMARK   83  A    between atoms: _196  and  _199
REMARK   84  A    between atoms: _199  and  _200
REMARK   85  A    between atoms: _200  and  _201
REMARK   86  A    between atoms: _201  and  _202
REMARK   87  A    between atoms: _202  and  _203
REMARK   88  A    between atoms: _207  and  _209
REMARK   89  A    between atoms: _209  and  _210
REMARK   90  A    between atoms: _209  and  _212
REMARK   91  A    between atoms: _212  and  _213
REMARK   92  A    between atoms: _213  and  _214
REMARK   93  A    between atoms: _214  and  _215
REMARK   94  A    between atoms: _224  and  _226
REMARK   95  A    between atoms: _226  and  _227
REMARK   96  A    between atoms: _226  and  _229
REMARK   97  A    between atoms: _229  and  _230
REMARK   98  A    between atoms: _232  and  _234
REMARK   99  A    between atoms: _234  and  _235
REMARK  100  A    between atoms: _234  and  _237
REMARK  101  A    between atoms: _237  and  _238
REMARK  102  A    between atoms: _244  and  _246
REMARK  103  A    between atoms: _246  and  _247
REMARK  104  A    between atoms: _246  and  _249
REMARK  105  A    between atoms: _249  and  _250
REMARK  106  A    between atoms: _255  and  _256
REMARK  107  A    between atoms: _258  and  _260
REMARK  108  A    between atoms: _260  and  _261
REMARK  109  A    between atoms: _260  and  _263
REMARK  110  A    between atoms: _263  and  _264
REMARK  111  A    between atoms: _264  and  _265
REMARK  112  A    between atoms: _265  and  _266
REMARK  113  A    between atoms: _275  and  _277
REMARK  114  A    between atoms: _277  and  _278
REMARK  115  A    between atoms: _277  and  _280
REMARK  116  A    between atoms: _280  and  _281
REMARK  117  A    between atoms: _283  and  _285
REMARK  118  A    between atoms: _285  and  _286
REMARK  119  A    between atoms: _285  and  _288
REMARK  120  A    between atoms: _288  and  _289
REMARK  121  A    between atoms: _292  and  _294
REMARK  122  A    between atoms: _294  and  _295
REMARK  123  A    between atoms: _294  and  _297
REMARK  124  A    between atoms: _297  and  _298
REMARK  125  A    between atoms: _301  and  _303
REMARK  126  A    between atoms: _303  and  _304
REMARK  127  A    between atoms: _303  and  _306
REMARK  128  A    between atoms: _306  and  _307
REMARK  129  A    between atoms: _307  and  _308
REMARK  130  A    between atoms: _310  and  _312
REMARK  131  A    between atoms: _312  and  _313
REMARK  132  A    between atoms: _312  and  _315
REMARK  133  A    between atoms: _318  and  _320
REMARK  134  A    between atoms: _320  and  _321
REMARK  135  A    between atoms: _320  and  _323
REMARK  136  A    between atoms: _323  and  _324
REMARK  137  A    between atoms: _324  and  _325
REMARK  138  A    between atoms: _328  and  _330
REMARK  139  A    between atoms: _330  and  _331
REMARK  140  A    between atoms: _330  and  _333
REMARK  141  A    between atoms: _333  and  _334
REMARK  142  A    between atoms: _334  and  _335
REMARK  143  A    between atoms: _335  and  _336
REMARK  144  A    between atoms: _336  and  _337
REMARK  145  A    between atoms: _341  and  _343
REMARK  146  A    between atoms: _343  and  _344
REMARK  147  A    between atoms: _343  and  _346
REMARK  148  A    between atoms: _346  and  _347
REMARK  149  A    between atoms: _347  and  _348
REMARK  150  A    between atoms: _348  and  _349
REMARK  151  A    between atoms: _349  and  _350
REMARK  152  A    between atoms: _354  and  _356
REMARK  153  A    between atoms: _356  and  _357
REMARK  154  A    between atoms: _356  and  _359
REMARK  155  A    between atoms: _359  and  _360
REMARK  156  A    between atoms: _366  and  _368
REMARK  157  A    between atoms: _368  and  _369
REMARK  158  A    between atoms: _368  and  _371
REMARK  159  A    between atoms: _371  and  _372
REMARK  160  A    between atoms: _374  and  _376
REMARK  161  A    between atoms: _376  and  _377
REMARK  162  A    between atoms: _376  and  _379
REMARK  163  A    between atoms: _379  and  _380
REMARK  164  A    between atoms: _380  and  _381
REMARK  165  A    between atoms: _381  and  _382
REMARK  166  A    between atoms: _382  and  _383
REMARK  167  A    between atoms: _387  and  _389
REMARK  168  A    between atoms: _389  and  _390
REMARK  169  A    between atoms: _389  and  _392
REMARK  170  A    between atoms: _392  and  _393
REMARK  171  A    between atoms: _399  and  _401
REMARK  172  A    between atoms: _401  and  _402
REMARK  173  A    between atoms: _401  and  _404
REMARK  174  A    between atoms: _404  and  _405
REMARK  175  A    between atoms: _408  and  _410
REMARK  176  A    between atoms: _410  and  _411
REMARK  177  A    between atoms: _410  and  _413
REMARK  178  A    between atoms: _413  and  _414
REMARK  179  A    between atoms: _419  and  _421
REMARK  180  A    between atoms: _421  and  _422
REMARK  181  A    between atoms: _424  and  _426
REMARK  182  A    between atoms: _426  and  _427
REMARK  183  A    between atoms: _426  and  _429
REMARK  184  A    between atoms: _429  and  _430
REMARK                            x       y       z     vdW  Elec       q    Type
REMARK                         _______ _______ _______ _____ _____    ______ ____
ROOT
ATOM      1  O   HOH     1      16.684  13.956  13.591  0.00  0.00    +0.000 OA
ENDROOT
TORSDOF 0
REMARK  Name = ../refined-set-2016/3g3r/3g3r_pocket.pdb
REMARK  184 active torsions:
REMARK  status: ('A' for Active; 'I' for Inactive)
REMARK    1  A    between atoms: _1  and  _3
REMARK    2  A    between atoms: _3  and  _4
REMARK    3  A    between atoms: _3  and  _6
REMARK    4  A    between atoms: _6  and  _7
REMARK    5  A    between atoms: _10  and  _12
REMARK    6  A    between atoms: _12  and  _13
REMARK    7  A    between atoms: _12  and  _15
REMARK    8  A    between atoms: _15  and  _16
REMARK    9  A    between atoms: _16  and  _17
REMARK   10  A    between atoms: _17  and  _18
REMARK   11  A    between atoms: _18  and  _19
REMARK   12  A    between atoms: _23  and  _25
REMARK   13  A    between atoms: _25  and  _26
REMARK   14  A    between atoms: _25  and  _28
REMARK   15  A    between atoms: _28  and  _29
REMARK   16  A    between atoms: _39  and  _41
REMARK   17  A    between atoms: _41  and  _42
REMARK   18  A    between atoms: _41  and  _44
REMARK   19  A    between atoms: _44  and  _45
REMARK   20  A    between atoms: _48  and  _50
REMARK   21  A    between atoms: _50  and  _51
REMARK   22  A    between atoms: _50  and  _53
REMARK   23  A    between atoms: _53  and  _54
REMARK   24  A    between atoms: _57  and  _59
REMARK   25  A    between atoms: _59  and  _60
REMARK   26  A    between atoms: _59  and  _62
REMARK   27  A    between atoms: _62  and  _63
REMARK   28  A    between atoms: _65  and  _67
REMARK   29  A    between atoms: _67  and  _68
REMARK   30  A    between atoms: _67  and  _70
REMARK   31  A    between atoms: _70  and  _71
REMARK   32  A    between atoms: _76  and  _77
REMARK   33  A    between atoms: _79  and  _81
REMARK   34  A    between atoms: _81  and  _82
REMARK   35  A    between atoms: _81  and  _84
REMARK   36  A    between atoms: _84  and  _85
REMARK   37  A    between atoms: _85  and  _86
REMARK   38  A    between atoms: _86  and  _87
REMARK   39  A    between atoms: _96  and  _98
REMARK   40  A    between atoms: _98  and  _99
REMARK   41  A    between atoms: _98  and  _101
REMARK   42  A    between atoms: _101  and  _102
REMARK   43  A    between atoms: _102  and  _103
REMARK   44  A    between atoms: _103  and  _104
REMARK   45  A    between atoms: _104  and  _105
REMARK   46  A    between atoms: _109  and  _111
REMARK   47  A    between atoms: _111  and  _112
REMARK   48  A    between atoms: _115  and  _117
REMARK   49  A    between atoms: _117  and  _118
REMARK   50  A    between atoms: _117  and  _120
REMARK   51  A    between atoms: _120  and  _121
REMARK   52  A    between atoms: _121  and  _122
REMARK   53  A    between atoms: _122  and  _123
REMARK   54  A    between atoms: _132  and  _134
REMARK   55  A    between atoms: _134  and  _135
REMARK   56  A    between atoms: _134  and  _137
REMARK   57  A    between atoms: _137  and  _138
REMARK   58  A    between atoms: _138  and  _139
REMARK   59  A    between atoms: _139  and  _140
REMARK   60  A    between atoms: _149  and  _151
REMARK   61  A    between atoms: _151  and  _152
REMARK   62  A    between atoms: _151  and  _154
REMARK   63  A    between atoms: _154  and  _155
REMARK   64  A    between atoms: _160  and  _161
REMARK   65  A    between atoms: _163  and  _165
REMARK   66  A    between atoms: _165  and  _166
REMARK   67  A    between atoms: _165  and  _168
REMARK   68  A    between atoms: _168  and  _169
REMARK   69  A    between atoms: _169  and  _170
REMARK   70  A    between atoms: _173  and  _175
REMARK   71  A    between atoms: _175  and  _176
REMARK   72  A    between atoms: _175  and  _178
REMARK   73  A    between atoms: _178  and  _179
REMARK   74  A    between atoms: _179  and  _180
REMARK   75  A    between atoms: _180  and  _181
REMARK   76  A    between atoms: _181  and  _182
REMARK   77  A    between atoms: _186  and  _188
REMARK   78  A    between atoms: _188  and  _189
REMARK   79  A    between atoms: _188  and  _191
REMARK   80  A    between atoms: _191  and  _192
REMARK   81  A    between atoms: _194  and  _196
REMARK   82  A    between atoms: _196  and  _197
REMARK   83  A    between atoms: _196  and  _199
REMARK   84  A    between atoms: _199  and  _200
REMARK   85  A    between atoms: _200  and  _201
REMARK   86  A    between atoms: _201  and  _202
REMARK   87  A    between atoms: _202  and  _203
REMARK   88  A    between atoms: _207  and  _209
REMARK   89  A    between atoms: _209  and  _210
REMARK   90  A    between atoms: _209  and  _212
REMARK   91  A    between atoms: _212  and  _213
REMARK   92  A    between atoms: _213  and  _214
REMARK   93  A    between atoms: _214  and  _215
REMARK   94  A    between atoms: _224  and  _226
REMARK   95  A    between atoms: _226  and  _227
REMARK   96  A    between atoms: _226  and  _229
REMARK   97  A    between atoms: _229  and  _230
REMARK   98  A    between atoms: _232  and  _234
REMARK   99  A    between atoms: _234  and  _235
REMARK  100  A    between atoms: _234  and  _237
REMARK  101  A    between atoms: _237  and  _238
REMARK  102  A    between atoms: _244  and  _246
REMARK  103  A    between atoms: _246  and  _247
REMARK  104  A    between atoms: _246  and  _249
REMARK  105  A    between atoms: _249  and  _250
REMARK  106  A    between atoms: _255  and  _256
REMARK  107  A    between atoms: _258  and  _260
REMARK  108  A    between atoms: _260  and  _261
REMARK  109  A    between atoms: _260  and  _263
REMARK  110  A    between atoms: _263  and  _264
REMARK  111  A    between atoms: _264  and  _265
REMARK  112  A    between atoms: _265  and  _266
REMARK  113  A    between atoms: _275  and  _277
REMARK  114  A    between atoms: _277  and  _278
REMARK  115  A    between atoms: _277  and  _280
REMARK  116  A    between atoms: _280  and  _281
REMARK  117  A    between atoms: _283  and  _285
REMARK  118  A    between atoms: _285  and  _286
REMARK  119  A    between atoms: _285  and  _288
REMARK  120  A    between atoms: _288  and  _289
REMARK  121  A    between atoms: _292  and  _294
REMARK  122  A    between atoms: _294  and  _295
REMARK  123  A    between atoms: _294  and  _297
REMARK  124  A    between atoms: _297  and  _298
REMARK  125  A    between atoms: _301  and  _303
REMARK  126  A    between atoms: _303  and  _304
REMARK  127  A    between atoms: _303  and  _306
REMARK  128  A    between atoms: _306  and  _307
REMARK  129  A    between atoms: _307  and  _308
REMARK  130  A    between atoms: _310  and  _312
REMARK  131  A    between atoms: _312  and  _313
REMARK  132  A    between atoms: _312  and  _315
REMARK  133  A    between atoms: _318  and  _320
REMARK  134  A    between atoms: _320  and  _321
REMARK  135  A    between atoms: _320  and  _323
REMARK  136  A    between atoms: _323  and  _324
REMARK  137  A    between atoms: _324  and  _325
REMARK  138  A    between atoms: _328  and  _330
REMARK  139  A    between atoms: _330  and  _331
REMARK  140  A    between atoms: _330  and  _333
REMARK  141  A    between atoms: _333  and  _334
REMARK  142  A    between atoms: _334  and  _335
REMARK  143  A    between atoms: _335  and  _336
REMARK  144  A    between atoms: _336  and  _337
REMARK  145  A    between atoms: _341  and  _343
REMARK  146  A    between atoms: _343  and  _344
REMARK  147  A    between atoms: _343  and  _346
REMARK  148  A    between atoms: _346  and  _347
REMARK  149  A    between atoms: _347  and  _348
REMARK  150  A    between atoms: _348  and  _349
REMARK  151  A    between atoms: _349  and  _350
REMARK  152  A    between atoms: _354  and  _356
REMARK  153  A    between atoms: _356  and  _357
REMARK  154  A    between atoms: _356  and  _359
REMARK  155  A    between atoms: _359  and  _360
REMARK  156  A    between atoms: _366  and  _368
REMARK  157  A    between atoms: _368  and  _369
REMARK  158  A    between atoms: _368  and  _371
REMARK  159  A    between atoms: _371  and  _372
REMARK  160  A    between atoms: _374  and  _376
REMARK  161  A    between atoms: _376  and  _377
REMARK  162  A    between atoms: _376  and  _379
REMARK  163  A    between atoms: _379  and  _380
REMARK  164  A    between atoms: _380  and  _381
REMARK  165  A    between atoms: _381  and  _382
REMARK  166  A    between atoms: _382  and  _383
REMARK  167  A    between atoms: _387  and  _389
REMARK  168  A    between atoms: _389  and  _390
REMARK  169  A    between atoms: _389  and  _392
REMARK  170  A    between atoms: _392  and  _393
REMARK  171  A    between atoms: _399  and  _401
REMARK  172  A    between atoms: _401  and  _402
REMARK  173  A    between atoms: _401  and  _404
REMARK  174  A    between atoms: _404  and  _405
REMARK  175  A    between atoms: _408  and  _410
REMARK  176  A    between atoms: _410  and  _411
REMARK  177  A    between atoms: _410  and  _413
REMARK  178  A    between atoms: _413  and  _414
REMARK  179  A    between atoms: _419  and  _421
REMARK  180  A    between atoms: _421  and  _422
REMARK  181  A    between atoms: _424  and  _426
REMARK  182  A    between atoms: _426  and  _427
REMARK  183  A    between atoms: _426  and  _429
REMARK  184  A    between atoms: _429  and  _430
REMARK                            x       y       z     vdW  Elec       q    Type
REMARK                         _______ _______ _______ _____ _____    ______ ____
ROOT
ATOM      1  O   HOH     1      16.491  17.525  18.292  0.00  0.00    +0.000 OA
ENDROOT
TORSDOF 0
REMARK  Name = ../refined-set-2016/3g3r/3g3r_pocket.pdb
REMARK  184 active torsions:
REMARK  status: ('A' for Active; 'I' for Inactive)
REMARK    1  A    between atoms: _1  and  _3
REMARK    2  A    between atoms: _3  and  _4
REMARK    3  A    between atoms: _3  and  _6
REMARK    4  A    between atoms: _6  and  _7
REMARK    5  A    between atoms: _10  and  _12
REMARK    6  A    between atoms: _12  and  _13
REMARK    7  A    between atoms: _12  and  _15
REMARK    8  A    between atoms: _15  and  _16
REMARK    9  A    between atoms: _16  and  _17
REMARK   10  A    between atoms: _17  and  _18
REMARK   11  A    between atoms: _18  and  _19
REMARK   12  A    between atoms: _23  and  _25
REMARK   13  A    between atoms: _25  and  _26
REMARK   14  A    between atoms: _25  and  _28
REMARK   15  A    between atoms: _28  and  _29
REMARK   16  A    between atoms: _39  and  _41
REMARK   17  A    between atoms: _41  and  _42
REMARK   18  A    between atoms: _41  and  _44
REMARK   19  A    between atoms: _44  and  _45
REMARK   20  A    between atoms: _48  and  _50
REMARK   21  A    between atoms: _50  and  _51
REMARK   22  A    between atoms: _50  and  _53
REMARK   23  A    between atoms: _53  and  _54
REMARK   24  A    between atoms: _57  and  _59
REMARK   25  A    between atoms: _59  and  _60
REMARK   26  A    between atoms: _59  and  _62
REMARK   27  A    between atoms: _62  and  _63
REMARK   28  A    between atoms: _65  and  _67
REMARK   29  A    between atoms: _67  and  _68
REMARK   30  A    between atoms: _67  and  _70
REMARK   31  A    between atoms: _70  and  _71
REMARK   32  A    between atoms: _76  and  _77
REMARK   33  A    between atoms: _79  and  _81
REMARK   34  A    between atoms: _81  and  _82
REMARK   35  A    between atoms: _81  and  _84
REMARK   36  A    between atoms: _84  and  _85
REMARK   37  A    between atoms: _85  and  _86
REMARK   38  A    between atoms: _86  and  _87
REMARK   39  A    between atoms: _96  and  _98
REMARK   40  A    between atoms: _98  and  _99
REMARK   41  A    between atoms: _98  and  _101
REMARK   42  A    between atoms: _101  and  _102
REMARK   43  A    between atoms: _102  and  _103
REMARK   44  A    between atoms: _103  and  _104
REMARK   45  A    between atoms: _104  and  _105
REMARK   46  A    between atoms: _109  and  _111
REMARK   47  A    between atoms: _111  and  _112
REMARK   48  A    between atoms: _115  and  _117
REMARK   49  A    between atoms: _117  and  _118
REMARK   50  A    between atoms: _117  and  _120
REMARK   51  A    between atoms: _120  and  _121
REMARK   52  A    between atoms: _121  and  _122
REMARK   53  A    between atoms: _122  and  _123
REMARK   54  A    between atoms: _132  and  _134
REMARK   55  A    between atoms: _134  and  _135
REMARK   56  A    between atoms: _134  and  _137
REMARK   57  A    between atoms: _137  and  _138
REMARK   58  A    between atoms: _138  and  _139
REMARK   59  A    between atoms: _139  and  _140
REMARK   60  A    between atoms: _149  and  _151
REMARK   61  A    between atoms: _151  and  _152
REMARK   62  A    between atoms: _151  and  _154
REMARK   63  A    between atoms: _154  and  _155
REMARK   64  A    between atoms: _160  and  _161
REMARK   65  A    between atoms: _163  and  _165
REMARK   66  A    between atoms: _165  and  _166
REMARK   67  A    between atoms: _165  and  _168
REMARK   68  A    between atoms: _168  and  _169
REMARK   69  A    between atoms: _169  and  _170
REMARK   70  A    between atoms: _173  and  _175
REMARK   71  A    between atoms: _175  and  _176
REMARK   72  A    between atoms: _175  and  _178
REMARK   73  A    between atoms: _178  and  _179
REMARK   74  A    between atoms: _179  and  _180
REMARK   75  A    between atoms: _180  and  _181
REMARK   76  A    between atoms: _181  and  _182
REMARK   77  A    between atoms: _186  and  _188
REMARK   78  A    between atoms: _188  and  _189
REMARK   79  A    between atoms: _188  and  _191
REMARK   80  A    between atoms: _191  and  _192
REMARK   81  A    between atoms: _194  and  _196
REMARK   82  A    between atoms: _196  and  _197
REMARK   83  A    between atoms: _196  and  _199
REMARK   84  A    between atoms: _199  and  _200
REMARK   85  A    between atoms: _200  and  _201
REMARK   86  A    between atoms: _201  and  _202
REMARK   87  A    between atoms: _202  and  _203
REMARK   88  A    between atoms: _207  and  _209
REMARK   89  A    between atoms: _209  and  _210
REMARK   90  A    between atoms: _209  and  _212
REMARK   91  A    between atoms: _212  and  _213
REMARK   92  A    between atoms: _213  and  _214
REMARK   93  A    between atoms: _214  and  _215
REMARK   94  A    between atoms: _224  and  _226
REMARK   95  A    between atoms: _226  and  _227
REMARK   96  A    between atoms: _226  and  _229
REMARK   97  A    between atoms: _229  and  _230
REMARK   98  A    between atoms: _232  and  _234
REMARK   99  A    between atoms: _234  and  _235
REMARK  100  A    between atoms: _234  and  _237
REMARK  101  A    between atoms: _237  and  _238
REMARK  102  A    between atoms: _244  and  _246
REMARK  103  A    between atoms: _246  and  _247
REMARK  104  A    between atoms: _246  and  _249
REMARK  105  A    between atoms: _249  and  _250
REMARK  106  A    between atoms: _255  and  _256
REMARK  107  A    between atoms: _258  and  _260
REMARK  108  A    between atoms: _260  and  _261
REMARK  109  A    between atoms: _260  and  _263
REMARK  110  A    between atoms: _263  and  _264
REMARK  111  A    between atoms: _264  and  _265
REMARK  112  A    between atoms: _265  and  _266
REMARK  113  A    between atoms: _275  and  _277
REMARK  114  A    between atoms: _277  and  _278
REMARK  115  A    between atoms: _277  and  _280
REMARK  116  A    between atoms: _280  and  _281
REMARK  117  A    between atoms: _283  and  _285
REMARK  118  A    between atoms: _285  and  _286
REMARK  119  A    between atoms: _285  and  _288
REMARK  120  A    between atoms: _288  and  _289
REMARK  121  A    between atoms: _292  and  _294
REMARK  122  A    between atoms: _294  and  _295
REMARK  123  A    between atoms: _294  and  _297
REMARK  124  A    between atoms: _297  and  _298
REMARK  125  A    between atoms: _301  and  _303
REMARK  126  A    between atoms: _303  and  _304
REMARK  127  A    between atoms: _303  and  _306
REMARK  128  A    between atoms: _306  and  _307
REMARK  129  A    between atoms: _307  and  _308
REMARK  130  A    between atoms: _310  and  _312
REMARK  131  A    between atoms: _312  and  _313
REMARK  132  A    between atoms: _312  and  _315
REMARK  133  A    between atoms: _318  and  _320
REMARK  134  A    between atoms: _320  and  _321
REMARK  135  A    between atoms: _320  and  _323
REMARK  136  A    between atoms: _323  and  _324
REMARK  137  A    between atoms: _324  and  _325
REMARK  138  A    between atoms: _328  and  _330
REMARK  139  A    between atoms: _330  and  _331
REMARK  140  A    between atoms: _330  and  _333
REMARK  141  A    between atoms: _333  and  _334
REMARK  142  A    between atoms: _334  and  _335
REMARK  143  A    between atoms: _335  and  _336
REMARK  144  A    between atoms: _336  and  _337
REMARK  145  A    between atoms: _341  and  _343
REMARK  146  A    between atoms: _343  and  _344
REMARK  147  A    between atoms: _343  and  _346
REMARK  148  A    between atoms: _346  and  _347
REMARK  149  A    between atoms: _347  and  _348
REMARK  150  A    between atoms: _348  and  _349
REMARK  151  A    between atoms: _349  and  _350
REMARK  152  A    between atoms: _354  and  _356
REMARK  153  A    between atoms: _356  and  _357
REMARK  154  A    between atoms: _356  and  _359
REMARK  155  A    between atoms: _359  and  _360
REMARK  156  A    between atoms: _366  and  _368
REMARK  157  A    between atoms: _368  and  _369
REMARK  158  A    between atoms: _368  and  _371
REMARK  159  A    between atoms: _371  and  _372
REMARK  160  A    between atoms: _374  and  _376
REMARK  161  A    between atoms: _376  and  _377
REMARK  162  A    between atoms: _376  and  _379
REMARK  163  A    between atoms: _379  and  _380
REMARK  164  A    between atoms: _380  and  _381
REMARK  165  A    between atoms: _381  and  _382
REMARK  166  A    between atoms: _382  and  _383
REMARK  167  A    between atoms: _387  and  _389
REMARK  168  A    between atoms: _389  and  _390
REMARK  169  A    between atoms: _389  and  _392
REMARK  170  A    between atoms: _392  and  _393
REMARK  171  A    between atoms: _399  and  _401
REMARK  172  A    between atoms: _401  and  _402
REMARK  173  A    between atoms: _401  and  _404
REMARK  174  A    between atoms: _404  and  _405
REMARK  175  A    between atoms: _408  and  _410
REMARK  176  A    between atoms: _410  and  _411
REMARK  177  A    between atoms: _410  and  _413
REMARK  178  A    between atoms: _413  and  _414
REMARK  179  A    between atoms: _419  and  _421
REMARK  180  A    between atoms: _421  and  _422
REMARK  181  A    between atoms: _424  and  _426
REMARK  182  A    between atoms: _426  and  _427
REMARK  183  A    between atoms: _426  and  _429
REMARK  184  A    between atoms: _429  and  _430
REMARK                            x       y       z     vdW  Elec       q    Type
REMARK                         _______ _______ _______ _____ _____    ______ ____
ROOT
ATOM      1  O   HOH     1      21.290  16.555  19.214  0.00  0.00    +0.000 OA
ENDROOT
TORSDOF 0
