REMARK  Name = ../refined-set-2016/2w8w/2w8w_pocket.pdb
REMARK  239 active torsions:
REMARK  status: ('A' for Active; 'I' for Inactive)
REMARK    1  A    between atoms: _1  and  _3
REMARK    2  A    between atoms: _3  and  _4
REMARK    3  A    between atoms: _6  and  _8
REMARK    4  A    between atoms: _8  and  _9
REMARK    5  A    between atoms: _8  and  _11
REMARK    6  A    between atoms: _11  and  _12
REMARK    7  A    between atoms: _17  and  _18
REMARK    8  A    between atoms: _20  and  _22
REMARK    9  A    between atoms: _22  and  _23
REMARK   10  A    between atoms: _22  and  _25
REMARK   11  A    between atoms: _25  and  _26
REMARK   12  A    between atoms: _31  and  _32
REMARK   13  A    between atoms: _34  and  _36
REMARK   14  A    between atoms: _36  and  _37
REMARK   15  A    between atoms: _36  and  _39
REMARK   16  A    between atoms: _39  and  _40
REMARK   17  A    between atoms: _42  and  _44
REMARK   18  A    between atoms: _44  and  _45
REMARK   19  A    between atoms: _44  and  _47
REMARK   20  A    between atoms: _47  and  _48
REMARK   21  A    between atoms: _51  and  _53
REMARK   22  A    between atoms: _53  and  _54
REMARK   23  A    between atoms: _56  and  _58
REMARK   24  A    between atoms: _58  and  _59
REMARK   25  A    between atoms: _58  and  _61
REMARK   26  A    between atoms: _61  and  _62
REMARK   27  A    between atoms: _67  and  _68
REMARK   28  A    between atoms: _70  and  _72
REMARK   29  A    between atoms: _72  and  _73
REMARK   30  A    between atoms: _72  and  _75
REMARK   31  A    between atoms: _75  and  _76
REMARK   32  A    between atoms: _76  and  _77
REMARK   33  A    between atoms: _79  and  _81
REMARK   34  A    between atoms: _81  and  _82
REMARK   35  A    between atoms: _85  and  _87
REMARK   36  A    between atoms: _87  and  _88
REMARK   37  A    between atoms: _87  and  _90
REMARK   38  A    between atoms: _90  and  _91
REMARK   39  A    between atoms: _96  and  _98
REMARK   40  A    between atoms: _98  and  _99
REMARK   41  A    between atoms: _98  and  _101
REMARK   42  A    between atoms: _101  and  _102
REMARK   43  A    between atoms: _105  and  _107
REMARK   44  A    between atoms: _107  and  _108
REMARK   45  A    between atoms: _107  and  _110
REMARK   46  A    between atoms: _110  and  _111
REMARK   47  A    between atoms: _114  and  _116
REMARK   48  A    between atoms: _116  and  _117
REMARK   49  A    between atoms: _116  and  _119
REMARK   50  A    between atoms: _119  and  _120
REMARK   51  A    between atoms: _122  and  _124
REMARK   52  A    between atoms: _124  and  _125
REMARK   53  A    between atoms: _124  and  _127
REMARK   54  A    between atoms: _127  and  _128
REMARK   55  A    between atoms: _133  and  _135
REMARK   56  A    between atoms: _135  and  _136
REMARK   57  A    between atoms: _139  and  _141
REMARK   58  A    between atoms: _141  and  _142
REMARK   59  A    between atoms: _141  and  _144
REMARK   60  A    between atoms: _144  and  _145
REMARK   61  A    between atoms: _147  and  _149
REMARK   62  A    between atoms: _149  and  _150
REMARK   63  A    between atoms: _149  and  _152
REMARK   64  A    between atoms: _152  and  _153
REMARK   65  A    between atoms: _156  and  _158
REMARK   66  A    between atoms: _158  and  _159
REMARK   67  A    between atoms: _158  and  _161
REMARK   68  A    between atoms: _161  and  _162
REMARK   69  A    between atoms: _165  and  _167
REMARK   70  A    between atoms: _167  and  _168
REMARK   71  A    between atoms: _167  and  _170
REMARK   72  A    between atoms: _170  and  _171
REMARK   73  A    between atoms: _171  and  _172
REMARK   74  A    between atoms: _175  and  _177
REMARK   75  A    between atoms: _177  and  _178
REMARK   76  A    between atoms: _180  and  _182
REMARK   77  A    between atoms: _182  and  _183
REMARK   78  A    between atoms: _182  and  _185
REMARK   79  A    between atoms: _188  and  _190
REMARK   80  A    between atoms: _190  and  _191
REMARK   81  A    between atoms: _190  and  _193
REMARK   82  A    between atoms: _193  and  _194
REMARK   83  A    between atoms: _199  and  _200
REMARK   84  A    between atoms: _202  and  _204
REMARK   85  A    between atoms: _204  and  _205
REMARK   86  A    between atoms: _204  and  _207
REMARK   87  A    between atoms: _207  and  _208
REMARK   88  A    between atoms: _210  and  _212
REMARK   89  A    between atoms: _212  and  _213
REMARK   90  A    between atoms: _212  and  _215
REMARK   91  A    between atoms: _215  and  _216
REMARK   92  A    between atoms: _216  and  _217
REMARK   93  A    between atoms: _219  and  _221
REMARK   94  A    between atoms: _221  and  _222
REMARK   95  A    between atoms: _221  and  _224
REMARK   96  A    between atoms: _224  and  _225
REMARK   97  A    between atoms: _228  and  _230
REMARK   98  A    between atoms: _230  and  _231
REMARK   99  A    between atoms: _230  and  _233
REMARK  100  A    between atoms: _233  and  _234
REMARK  101  A    between atoms: _234  and  _235
REMARK  102  A    between atoms: _238  and  _240
REMARK  103  A    between atoms: _240  and  _241
REMARK  104  A    between atoms: _244  and  _246
REMARK  105  A    between atoms: _246  and  _247
REMARK  106  A    between atoms: _246  and  _249
REMARK  107  A    between atoms: _249  and  _250
REMARK  108  A    between atoms: _255  and  _257
REMARK  109  A    between atoms: _257  and  _258
REMARK  110  A    between atoms: _257  and  _260
REMARK  111  A    between atoms: _260  and  _261
REMARK  112  A    between atoms: _263  and  _265
REMARK  113  A    between atoms: _265  and  _266
REMARK  114  A    between atoms: _265  and  _268
REMARK  115  A    between atoms: _271  and  _273
REMARK  116  A    between atoms: _273  and  _274
REMARK  117  A    between atoms: _276  and  _278
REMARK  118  A    between atoms: _278  and  _279
REMARK  119  A    between atoms: _278  and  _281
REMARK  120  A    between atoms: _281  and  _282
REMARK  121  A    between atoms: _285  and  _287
REMARK  122  A    between atoms: _287  and  _288
REMARK  123  A    between atoms: _287  and  _290
REMARK  124  A    between atoms: _290  and  _291
REMARK  125  A    between atoms: _297  and  _299
REMARK  126  A    between atoms: _299  and  _300
REMARK  127  A    between atoms: _299  and  _302
REMARK  128  A    between atoms: _302  and  _303
REMARK  129  A    between atoms: _305  and  _307
REMARK  130  A    between atoms: _307  and  _308
REMARK  131  A    between atoms: _307  and  _310
REMARK  132  A    between atoms: _310  and  _311
REMARK  133  A    between atoms: _311  and  _312
REMARK  134  A    between atoms: _312  and  _313
REMARK  135  A    between atoms: _313  and  _314
REMARK  136  A    between atoms: _318  and  _320
REMARK  137  A    between atoms: _320  and  _321
REMARK  138  A    between atoms: _320  and  _323
REMARK  139  A    between atoms: _323  and  _324
REMARK  140  A    between atoms: _327  and  _329
REMARK  141  A    between atoms: _329  and  _330
REMARK  142  A    between atoms: _329  and  _332
REMARK  143  A    between atoms: _335  and  _337
REMARK  144  A    between atoms: _337  and  _338
REMARK  145  A    between atoms: _340  and  _342
REMARK  146  A    between atoms: _342  and  _343
REMARK  147  A    between atoms: _345  and  _347
REMARK  148  A    between atoms: _347  and  _348
REMARK  149  A    between atoms: _347  and  _350
REMARK  150  A    between atoms: _350  and  _351
REMARK  151  A    between atoms: _357  and  _359
REMARK  152  A    between atoms: _359  and  _360
REMARK  153  A    between atoms: _359  and  _362
REMARK  154  A    between atoms: _362  and  _363
REMARK  155  A    between atoms: _366  and  _368
REMARK  156  A    between atoms: _368  and  _369
REMARK  157  A    between atoms: _368  and  _371
REMARK  158  A    between atoms: _371  and  _372
REMARK  159  A    between atoms: _377  and  _379
REMARK  160  A    between atoms: _379  and  _380
REMARK  161  A    between atoms: _379  and  _382
REMARK  162  A    between atoms: _382  and  _383
REMARK  163  A    between atoms: _383  and  _384
REMARK  164  A    between atoms: _384  and  _385
REMARK  165  A    between atoms: _394  and  _396
REMARK  166  A    between atoms: _396  and  _397
REMARK  167  A    between atoms: _396  and  _399
REMARK  168  A    between atoms: _399  and  _400
REMARK  169  A    between atoms: _403  and  _405
REMARK  170  A    between atoms: _405  and  _406
REMARK  171  A    between atoms: _405  and  _408
REMARK  172  A    between atoms: _408  and  _409
REMARK  173  A    between atoms: _414  and  _415
REMARK  174  A    between atoms: _417  and  _419
REMARK  175  A    between atoms: _419  and  _420
REMARK  176  A    between atoms: _422  and  _424
REMARK  177  A    between atoms: _424  and  _425
REMARK  178  A    between atoms: _424  and  _427
REMARK  179  A    between atoms: _427  and  _428
REMARK  180  A    between atoms: _430  and  _432
REMARK  181  A    between atoms: _432  and  _433
REMARK  182  A    between atoms: _432  and  _435
REMARK  183  A    between atoms: _435  and  _436
REMARK  184  A    between atoms: _436  and  _437
REMARK  185  A    between atoms: _437  and  _438
REMARK  186  A    between atoms: _447  and  _449
REMARK  187  A    between atoms: _449  and  _450
REMARK  188  A    between atoms: _449  and  _452
REMARK  189  A    between atoms: _452  and  _453
REMARK  190  A    between atoms: _453  and  _454
REMARK  191  A    between atoms: _456  and  _458
REMARK  192  A    between atoms: _458  and  _459
REMARK  193  A    between atoms: _458  and  _461
REMARK  194  A    between atoms: _461  and  _462
REMARK  195  A    between atoms: _465  and  _467
REMARK  196  A    between atoms: _467  and  _468
REMARK  197  A    between atoms: _467  and  _470
REMARK  198  A    between atoms: _470  and  _471
REMARK  199  A    between atoms: _476  and  _478
REMARK  200  A    between atoms: _478  and  _479
REMARK  201  A    between atoms: _481  and  _483
REMARK  202  A    between atoms: _483  and  _484
REMARK  203  A    between atoms: _483  and  _486
REMARK  204  A    between atoms: _486  and  _487
REMARK  205  A    between atoms: _489  and  _491
REMARK  206  A    between atoms: _491  and  _492
REMARK  207  A    between atoms: _491  and  _494
REMARK  208  A    between atoms: _494  and  _495
REMARK  209  A    between atoms: _495  and  _496
REMARK  210  A    between atoms: _498  and  _500
REMARK  211  A    between atoms: _500  and  _501
REMARK  212  A    between atoms: _500  and  _503
REMARK  213  A    between atoms: _503  and  _504
REMARK  214  A    between atoms: _504  and  _505
REMARK  215  A    between atoms: _505  and  _506
REMARK  216  A    between atoms: _516  and  _517
REMARK  217  A    between atoms: _522  and  _524
REMARK  218  A    between atoms: _524  and  _525
REMARK  219  A    between atoms: _524  and  _527
REMARK  220  A    between atoms: _527  and  _528
REMARK  221  A    between atoms: _533  and  _534
REMARK  222  A    between atoms: _536  and  _538
REMARK  223  A    between atoms: _538  and  _539
REMARK  224  A    between atoms: _538  and  _541
REMARK  225  A    between atoms: _541  and  _542
REMARK  226  A    between atoms: _545  and  _547
REMARK  227  A    between atoms: _547  and  _548
REMARK  228  A    between atoms: _547  and  _550
REMARK  229  A    between atoms: _550  and  _551
REMARK  230  A    between atoms: _557  and  _559
REMARK  231  A    between atoms: _559  and  _560
REMARK  232  A    between atoms: _559  and  _562
REMARK  233  A    between atoms: _562  and  _563
REMARK  234  A    between atoms: _566  and  _568
REMARK  235  A    between atoms: _568  and  _569
REMARK  236  A    between atoms: _572  and  _574
REMARK  237  A    between atoms: _574  and  _575
REMARK  238  A    between atoms: _574  and  _577
REMARK  239  A    between atoms: _577  and  _578
REMARK                            x       y       z     vdW  Elec       q    Type
REMARK                         _______ _______ _______ _____ _____    ______ ____
ROOT
ATOM      1  CA  GLY A   1      31.109  22.727   2.607  0.00  0.00    +0.156 C 
ENDROOT
BRANCH   1   2
ATOM      2  N   GLY A   1      30.765  24.001   1.977  0.00  0.00    -0.238 NA
ATOM      3  H   GLY A   1      31.299  24.853   2.243  0.00  0.00    +0.142 HD
ENDBRANCH   1   2
BRANCH   1   4
ATOM      4  C   GLY A   1      31.189  22.810   4.122  0.00  0.00    +0.226 C 
ATOM      5  O   GLY A   1      31.757  21.926   4.770  0.00  0.00    -0.287 OA
ENDBRANCH   1   4
TORSDOF 2
REMARK  Name = ../refined-set-2016/2w8w/2w8w_pocket.pdb
REMARK  239 active torsions:
REMARK  status: ('A' for Active; 'I' for Inactive)
REMARK    1  A    between atoms: _1  and  _3
REMARK    2  A    between atoms: _3  and  _4
REMARK    3  A    between atoms: _6  and  _8
REMARK    4  A    between atoms: _8  and  _9
REMARK    5  A    between atoms: _8  and  _11
REMARK    6  A    between atoms: _11  and  _12
REMARK    7  A    between atoms: _17  and  _18
REMARK    8  A    between atoms: _20  and  _22
REMARK    9  A    between atoms: _22  and  _23
REMARK   10  A    between atoms: _22  and  _25
REMARK   11  A    between atoms: _25  and  _26
REMARK   12  A    between atoms: _31  and  _32
REMARK   13  A    between atoms: _34  and  _36
REMARK   14  A    between atoms: _36  and  _37
REMARK   15  A    between atoms: _36  and  _39
REMARK   16  A    between atoms: _39  and  _40
REMARK   17  A    between atoms: _42  and  _44
REMARK   18  A    between atoms: _44  and  _45
REMARK   19  A    between atoms: _44  and  _47
REMARK   20  A    between atoms: _47  and  _48
REMARK   21  A    between atoms: _51  and  _53
REMARK   22  A    between atoms: _53  and  _54
REMARK   23  A    between atoms: _56  and  _58
REMARK   24  A    between atoms: _58  and  _59
REMARK   25  A    between atoms: _58  and  _61
REMARK   26  A    between atoms: _61  and  _62
REMARK   27  A    between atoms: _67  and  _68
REMARK   28  A    between atoms: _70  and  _72
REMARK   29  A    between atoms: _72  and  _73
REMARK   30  A    between atoms: _72  and  _75
REMARK   31  A    between atoms: _75  and  _76
REMARK   32  A    between atoms: _76  and  _77
REMARK   33  A    between atoms: _79  and  _81
REMARK   34  A    between atoms: _81  and  _82
REMARK   35  A    between atoms: _85  and  _87
REMARK   36  A    between atoms: _87  and  _88
REMARK   37  A    between atoms: _87  and  _90
REMARK   38  A    between atoms: _90  and  _91
REMARK   39  A    between atoms: _96  and  _98
REMARK   40  A    between atoms: _98  and  _99
REMARK   41  A    between atoms: _98  and  _101
REMARK   42  A    between atoms: _101  and  _102
REMARK   43  A    between atoms: _105  and  _107
REMARK   44  A    between atoms: _107  and  _108
REMARK   45  A    between atoms: _107  and  _110
REMARK   46  A    between atoms: _110  and  _111
REMARK   47  A    between atoms: _114  and  _116
REMARK   48  A    between atoms: _116  and  _117
REMARK   49  A    between atoms: _116  and  _119
REMARK   50  A    between atoms: _119  and  _120
REMARK   51  A    between atoms: _122  and  _124
REMARK   52  A    between atoms: _124  and  _125
REMARK   53  A    between atoms: _124  and  _127
REMARK   54  A    between atoms: _127  and  _128
REMARK   55  A    between atoms: _133  and  _135
REMARK   56  A    between atoms: _135  and  _136
REMARK   57  A    between atoms: _139  and  _141
REMARK   58  A    between atoms: _141  and  _142
REMARK   59  A    between atoms: _141  and  _144
REMARK   60  A    between atoms: _144  and  _145
REMARK   61  A    between atoms: _147  and  _149
REMARK   62  A    between atoms: _149  and  _150
REMARK   63  A    between atoms: _149  and  _152
REMARK   64  A    between atoms: _152  and  _153
REMARK   65  A    between atoms: _156  and  _158
REMARK   66  A    between atoms: _158  and  _159
REMARK   67  A    between atoms: _158  and  _161
REMARK   68  A    between atoms: _161  and  _162
REMARK   69  A    between atoms: _165  and  _167
REMARK   70  A    between atoms: _167  and  _168
REMARK   71  A    between atoms: _167  and  _170
REMARK   72  A    between atoms: _170  and  _171
REMARK   73  A    between atoms: _171  and  _172
REMARK   74  A    between atoms: _175  and  _177
REMARK   75  A    between atoms: _177  and  _178
REMARK   76  A    between atoms: _180  and  _182
REMARK   77  A    between atoms: _182  and  _183
REMARK   78  A    between atoms: _182  and  _185
REMARK   79  A    between atoms: _188  and  _190
REMARK   80  A    between atoms: _190  and  _191
REMARK   81  A    between atoms: _190  and  _193
REMARK   82  A    between atoms: _193  and  _194
REMARK   83  A    between atoms: _199  and  _200
REMARK   84  A    between atoms: _202  and  _204
REMARK   85  A    between atoms: _204  and  _205
REMARK   86  A    between atoms: _204  and  _207
REMARK   87  A    between atoms: _207  and  _208
REMARK   88  A    between atoms: _210  and  _212
REMARK   89  A    between atoms: _212  and  _213
REMARK   90  A    between atoms: _212  and  _215
REMARK   91  A    between atoms: _215  and  _216
REMARK   92  A    between atoms: _216  and  _217
REMARK   93  A    between atoms: _219  and  _221
REMARK   94  A    between atoms: _221  and  _222
REMARK   95  A    between atoms: _221  and  _224
REMARK   96  A    between atoms: _224  and  _225
REMARK   97  A    between atoms: _228  and  _230
REMARK   98  A    between atoms: _230  and  _231
REMARK   99  A    between atoms: _230  and  _233
REMARK  100  A    between atoms: _233  and  _234
REMARK  101  A    between atoms: _234  and  _235
REMARK  102  A    between atoms: _238  and  _240
REMARK  103  A    between atoms: _240  and  _241
REMARK  104  A    between atoms: _244  and  _246
REMARK  105  A    between atoms: _246  and  _247
REMARK  106  A    between atoms: _246  and  _249
REMARK  107  A    between atoms: _249  and  _250
REMARK  108  A    between atoms: _255  and  _257
REMARK  109  A    between atoms: _257  and  _258
REMARK  110  A    between atoms: _257  and  _260
REMARK  111  A    between atoms: _260  and  _261
REMARK  112  A    between atoms: _263  and  _265
REMARK  113  A    between atoms: _265  and  _266
REMARK  114  A    between atoms: _265  and  _268
REMARK  115  A    between atoms: _271  and  _273
REMARK  116  A    between atoms: _273  and  _274
REMARK  117  A    between atoms: _276  and  _278
REMARK  118  A    between atoms: _278  and  _279
REMARK  119  A    between atoms: _278  and  _281
REMARK  120  A    between atoms: _281  and  _282
REMARK  121  A    between atoms: _285  and  _287
REMARK  122  A    between atoms: _287  and  _288
REMARK  123  A    between atoms: _287  and  _290
REMARK  124  A    between atoms: _290  and  _291
REMARK  125  A    between atoms: _297  and  _299
REMARK  126  A    between atoms: _299  and  _300
REMARK  127  A    between atoms: _299  and  _302
REMARK  128  A    between atoms: _302  and  _303
REMARK  129  A    between atoms: _305  and  _307
REMARK  130  A    between atoms: _307  and  _308
REMARK  131  A    between atoms: _307  and  _310
REMARK  132  A    between atoms: _310  and  _311
REMARK  133  A    between atoms: _311  and  _312
REMARK  134  A    between atoms: _312  and  _313
REMARK  135  A    between atoms: _313  and  _314
REMARK  136  A    between atoms: _318  and  _320
REMARK  137  A    between atoms: _320  and  _321
REMARK  138  A    between atoms: _320  and  _323
REMARK  139  A    between atoms: _323  and  _324
REMARK  140  A    between atoms: _327  and  _329
REMARK  141  A    between atoms: _329  and  _330
REMARK  142  A    between atoms: _329  and  _332
REMARK  143  A    between atoms: _335  and  _337
REMARK  144  A    between atoms: _337  and  _338
REMARK  145  A    between atoms: _340  and  _342
REMARK  146  A    between atoms: _342  and  _343
REMARK  147  A    between atoms: _345  and  _347
REMARK  148  A    between atoms: _347  and  _348
REMARK  149  A    between atoms: _347  and  _350
REMARK  150  A    between atoms: _350  and  _351
REMARK  151  A    between atoms: _357  and  _359
REMARK  152  A    between atoms: _359  and  _360
REMARK  153  A    between atoms: _359  and  _362
REMARK  154  A    between atoms: _362  and  _363
REMARK  155  A    between atoms: _366  and  _368
REMARK  156  A    between atoms: _368  and  _369
REMARK  157  A    between atoms: _368  and  _371
REMARK  158  A    between atoms: _371  and  _372
REMARK  159  A    between atoms: _377  and  _379
REMARK  160  A    between atoms: _379  and  _380
REMARK  161  A    between atoms: _379  and  _382
REMARK  162  A    between atoms: _382  and  _383
REMARK  163  A    between atoms: _383  and  _384
REMARK  164  A    between atoms: _384  and  _385
REMARK  165  A    between atoms: _394  and  _396
REMARK  166  A    between atoms: _396  and  _397
REMARK  167  A    between atoms: _396  and  _399
REMARK  168  A    between atoms: _399  and  _400
REMARK  169  A    between atoms: _403  and  _405
REMARK  170  A    between atoms: _405  and  _406
REMARK  171  A    between atoms: _405  and  _408
REMARK  172  A    between atoms: _408  and  _409
REMARK  173  A    between atoms: _414  and  _415
REMARK  174  A    between atoms: _417  and  _419
REMARK  175  A    between atoms: _419  and  _420
REMARK  176  A    between atoms: _422  and  _424
REMARK  177  A    between atoms: _424  and  _425
REMARK  178  A    between atoms: _424  and  _427
REMARK  179  A    between atoms: _427  and  _428
REMARK  180  A    between atoms: _430  and  _432
REMARK  181  A    between atoms: _432  and  _433
REMARK  182  A    between atoms: _432  and  _435
REMARK  183  A    between atoms: _435  and  _436
REMARK  184  A    between atoms: _436  and  _437
REMARK  185  A    between atoms: _437  and  _438
REMARK  186  A    between atoms: _447  and  _449
REMARK  187  A    between atoms: _449  and  _450
REMARK  188  A    between atoms: _449  and  _452
REMARK  189  A    between atoms: _452  and  _453
REMARK  190  A    between atoms: _453  and  _454
REMARK  191  A    between atoms: _456  and  _458
REMARK  192  A    between atoms: _458  and  _459
REMARK  193  A    between atoms: _458  and  _461
REMARK  194  A    between atoms: _461  and  _462
REMARK  195  A    between atoms: _465  and  _467
REMARK  196  A    between atoms: _467  and  _468
REMARK  197  A    between atoms: _467  and  _470
REMARK  198  A    between atoms: _470  and  _471
REMARK  199  A    between atoms: _476  and  _478
REMARK  200  A    between atoms: _478  and  _479
REMARK  201  A    between atoms: _481  and  _483
REMARK  202  A    between atoms: _483  and  _484
REMARK  203  A    between atoms: _483  and  _486
REMARK  204  A    between atoms: _486  and  _487
REMARK  205  A    between atoms: _489  and  _491
REMARK  206  A    between atoms: _491  and  _492
REMARK  207  A    between atoms: _491  and  _494
REMARK  208  A    between atoms: _494  and  _495
REMARK  209  A    between atoms: _495  and  _496
REMARK  210  A    between atoms: _498  and  _500
REMARK  211  A    between atoms: _500  and  _501
REMARK  212  A    between atoms: _500  and  _503
REMARK  213  A    between atoms: _503  and  _504
REMARK  214  A    between atoms: _504  and  _505
REMARK  215  A    between atoms: _505  and  _506
REMARK  216  A    between atoms: _516  and  _517
REMARK  217  A    between atoms: _522  and  _524
REMARK  218  A    between atoms: _524  and  _525
REMARK  219  A    between atoms: _524  and  _527
REMARK  220  A    between atoms: _527  and  _528
REMARK  221  A    between atoms: _533  and  _534
REMARK  222  A    between atoms: _536  and  _538
REMARK  223  A    between atoms: _538  and  _539
REMARK  224  A    between atoms: _538  and  _541
REMARK  225  A    between atoms: _541  and  _542
REMARK  226  A    between atoms: _545  and  _547
REMARK  227  A    between atoms: _547  and  _548
REMARK  228  A    between atoms: _547  and  _550
REMARK  229  A    between atoms: _550  and  _551
REMARK  230  A    between atoms: _557  and  _559
REMARK  231  A    between atoms: _559  and  _560
REMARK  232  A    between atoms: _559  and  _562
REMARK  233  A    between atoms: _562  and  _563
REMARK  234  A    between atoms: _566  and  _568
REMARK  235  A    between atoms: _568  and  _569
REMARK  236  A    between atoms: _572  and  _574
REMARK  237  A    between atoms: _574  and  _575
REMARK  238  A    between atoms: _574  and  _577
REMARK  239  A    between atoms: _577  and  _578
REMARK                            x       y       z     vdW  Elec       q    Type
REMARK                         _______ _______ _______ _____ _____    ______ ____
ROOT
ATOM      1  CG  TYR A   1      28.312  20.463   8.119  0.00  0.00    -0.020 A 
ATOM      2  CD2 TYR A   1      29.481  19.721   8.161  0.00  0.00    -0.001 A 
ATOM      3  CE2 TYR A   1      29.719  18.730   7.234  0.00  0.00    +0.036 A 
ATOM      4  CZ  TYR A   1      28.782  18.489   6.253  0.00  0.00    +0.134 A 
ATOM      5  CE1 TYR A   1      27.620  19.212   6.194  0.00  0.00    +0.036 A 
ATOM      6  CD1 TYR A   1      27.393  20.190   7.120  0.00  0.00    -0.001 A 
ENDROOT
BRANCH   4   7
ATOM      7  OH  TYR A   1      28.999  17.514   5.324  0.00  0.00    -0.506 OA
ATOM      8  HH  TYR A   1      28.231  17.477   4.700  0.00  0.00    +0.292 HD
ENDBRANCH   4   7
BRANCH   1   9
ATOM      9  CB  TYR A   1      28.045  21.546   9.110  0.00  0.00    +0.051 C 
BRANCH   9  10
ATOM     10  CA  TYR A   1      27.953  22.895   8.420  0.00  0.00    +0.137 C 
BRANCH  10  11
ATOM     11  N   TYR A   1      29.260  23.307   7.926  0.00  0.00    -0.239 NA
ATOM     12  H   TYR A   1      30.060  23.463   8.571  0.00  0.00    +0.142 HD
ENDBRANCH  10  11
BRANCH  10  13
ATOM     13  C   TYR A   1      27.383  23.980   9.278  0.00  0.00    +0.224 C 
ATOM     14  O   TYR A   1      26.545  23.736  10.125  0.00  0.00    -0.287 OA
ENDBRANCH  10  13
ENDBRANCH   9  10
ENDBRANCH   1   9
TORSDOF 5
REMARK  Name = ../refined-set-2016/2w8w/2w8w_pocket.pdb
REMARK  239 active torsions:
REMARK  status: ('A' for Active; 'I' for Inactive)
REMARK    1  A    between atoms: _1  and  _3
REMARK    2  A    between atoms: _3  and  _4
REMARK    3  A    between atoms: _6  and  _8
REMARK    4  A    between atoms: _8  and  _9
REMARK    5  A    between atoms: _8  and  _11
REMARK    6  A    between atoms: _11  and  _12
REMARK    7  A    between atoms: _17  and  _18
REMARK    8  A    between atoms: _20  and  _22
REMARK    9  A    between atoms: _22  and  _23
REMARK   10  A    between atoms: _22  and  _25
REMARK   11  A    between atoms: _25  and  _26
REMARK   12  A    between atoms: _31  and  _32
REMARK   13  A    between atoms: _34  and  _36
REMARK   14  A    between atoms: _36  and  _37
REMARK   15  A    between atoms: _36  and  _39
REMARK   16  A    between atoms: _39  and  _40
REMARK   17  A    between atoms: _42  and  _44
REMARK   18  A    between atoms: _44  and  _45
REMARK   19  A    between atoms: _44  and  _47
REMARK   20  A    between atoms: _47  and  _48
REMARK   21  A    between atoms: _51  and  _53
REMARK   22  A    between atoms: _53  and  _54
REMARK   23  A    between atoms: _56  and  _58
REMARK   24  A    between atoms: _58  and  _59
REMARK   25  A    between atoms: _58  and  _61
REMARK   26  A    between atoms: _61  and  _62
REMARK   27  A    between atoms: _67  and  _68
REMARK   28  A    between atoms: _70  and  _72
REMARK   29  A    between atoms: _72  and  _73
REMARK   30  A    between atoms: _72  and  _75
REMARK   31  A    between atoms: _75  and  _76
REMARK   32  A    between atoms: _76  and  _77
REMARK   33  A    between atoms: _79  and  _81
REMARK   34  A    between atoms: _81  and  _82
REMARK   35  A    between atoms: _85  and  _87
REMARK   36  A    between atoms: _87  and  _88
REMARK   37  A    between atoms: _87  and  _90
REMARK   38  A    between atoms: _90  and  _91
REMARK   39  A    between atoms: _96  and  _98
REMARK   40  A    between atoms: _98  and  _99
REMARK   41  A    between atoms: _98  and  _101
REMARK   42  A    between atoms: _101  and  _102
REMARK   43  A    between atoms: _105  and  _107
REMARK   44  A    between atoms: _107  and  _108
REMARK   45  A    between atoms: _107  and  _110
REMARK   46  A    between atoms: _110  and  _111
REMARK   47  A    between atoms: _114  and  _116
REMARK   48  A    between atoms: _116  and  _117
REMARK   49  A    between atoms: _116  and  _119
REMARK   50  A    between atoms: _119  and  _120
REMARK   51  A    between atoms: _122  and  _124
REMARK   52  A    between atoms: _124  and  _125
REMARK   53  A    between atoms: _124  and  _127
REMARK   54  A    between atoms: _127  and  _128
REMARK   55  A    between atoms: _133  and  _135
REMARK   56  A    between atoms: _135  and  _136
REMARK   57  A    between atoms: _139  and  _141
REMARK   58  A    between atoms: _141  and  _142
REMARK   59  A    between atoms: _141  and  _144
REMARK   60  A    between atoms: _144  and  _145
REMARK   61  A    between atoms: _147  and  _149
REMARK   62  A    between atoms: _149  and  _150
REMARK   63  A    between atoms: _149  and  _152
REMARK   64  A    between atoms: _152  and  _153
REMARK   65  A    between atoms: _156  and  _158
REMARK   66  A    between atoms: _158  and  _159
REMARK   67  A    between atoms: _158  and  _161
REMARK   68  A    between atoms: _161  and  _162
REMARK   69  A    between atoms: _165  and  _167
REMARK   70  A    between atoms: _167  and  _168
REMARK   71  A    between atoms: _167  and  _170
REMARK   72  A    between atoms: _170  and  _171
REMARK   73  A    between atoms: _171  and  _172
REMARK   74  A    between atoms: _175  and  _177
REMARK   75  A    between atoms: _177  and  _178
REMARK   76  A    between atoms: _180  and  _182
REMARK   77  A    between atoms: _182  and  _183
REMARK   78  A    between atoms: _182  and  _185
REMARK   79  A    between atoms: _188  and  _190
REMARK   80  A    between atoms: _190  and  _191
REMARK   81  A    between atoms: _190  and  _193
REMARK   82  A    between atoms: _193  and  _194
REMARK   83  A    between atoms: _199  and  _200
REMARK   84  A    between atoms: _202  and  _204
REMARK   85  A    between atoms: _204  and  _205
REMARK   86  A    between atoms: _204  and  _207
REMARK   87  A    between atoms: _207  and  _208
REMARK   88  A    between atoms: _210  and  _212
REMARK   89  A    between atoms: _212  and  _213
REMARK   90  A    between atoms: _212  and  _215
REMARK   91  A    between atoms: _215  and  _216
REMARK   92  A    between atoms: _216  and  _217
REMARK   93  A    between atoms: _219  and  _221
REMARK   94  A    between atoms: _221  and  _222
REMARK   95  A    between atoms: _221  and  _224
REMARK   96  A    between atoms: _224  and  _225
REMARK   97  A    between atoms: _228  and  _230
REMARK   98  A    between atoms: _230  and  _231
REMARK   99  A    between atoms: _230  and  _233
REMARK  100  A    between atoms: _233  and  _234
REMARK  101  A    between atoms: _234  and  _235
REMARK  102  A    between atoms: _238  and  _240
REMARK  103  A    between atoms: _240  and  _241
REMARK  104  A    between atoms: _244  and  _246
REMARK  105  A    between atoms: _246  and  _247
REMARK  106  A    between atoms: _246  and  _249
REMARK  107  A    between atoms: _249  and  _250
REMARK  108  A    between atoms: _255  and  _257
REMARK  109  A    between atoms: _257  and  _258
REMARK  110  A    between atoms: _257  and  _260
REMARK  111  A    between atoms: _260  and  _261
REMARK  112  A    between atoms: _263  and  _265
REMARK  113  A    between atoms: _265  and  _266
REMARK  114  A    between atoms: _265  and  _268
REMARK  115  A    between atoms: _271  and  _273
REMARK  116  A    between atoms: _273  and  _274
REMARK  117  A    between atoms: _276  and  _278
REMARK  118  A    between atoms: _278  and  _279
REMARK  119  A    between atoms: _278  and  _281
REMARK  120  A    between atoms: _281  and  _282
REMARK  121  A    between atoms: _285  and  _287
REMARK  122  A    between atoms: _287  and  _288
REMARK  123  A    between atoms: _287  and  _290
REMARK  124  A    between atoms: _290  and  _291
REMARK  125  A    between atoms: _297  and  _299
REMARK  126  A    between atoms: _299  and  _300
REMARK  127  A    between atoms: _299  and  _302
REMARK  128  A    between atoms: _302  and  _303
REMARK  129  A    between atoms: _305  and  _307
REMARK  130  A    between atoms: _307  and  _308
REMARK  131  A    between atoms: _307  and  _310
REMARK  132  A    between atoms: _310  and  _311
REMARK  133  A    between atoms: _311  and  _312
REMARK  134  A    between atoms: _312  and  _313
REMARK  135  A    between atoms: _313  and  _314
REMARK  136  A    between atoms: _318  and  _320
REMARK  137  A    between atoms: _320  and  _321
REMARK  138  A    between atoms: _320  and  _323
REMARK  139  A    between atoms: _323  and  _324
REMARK  140  A    between atoms: _327  and  _329
REMARK  141  A    between atoms: _329  and  _330
REMARK  142  A    between atoms: _329  and  _332
REMARK  143  A    between atoms: _335  and  _337
REMARK  144  A    between atoms: _337  and  _338
REMARK  145  A    between atoms: _340  and  _342
REMARK  146  A    between atoms: _342  and  _343
REMARK  147  A    between atoms: _345  and  _347
REMARK  148  A    between atoms: _347  and  _348
REMARK  149  A    between atoms: _347  and  _350
REMARK  150  A    between atoms: _350  and  _351
REMARK  151  A    between atoms: _357  and  _359
REMARK  152  A    between atoms: _359  and  _360
REMARK  153  A    between atoms: _359  and  _362
REMARK  154  A    between atoms: _362  and  _363
REMARK  155  A    between atoms: _366  and  _368
REMARK  156  A    between atoms: _368  and  _369
REMARK  157  A    between atoms: _368  and  _371
REMARK  158  A    between atoms: _371  and  _372
REMARK  159  A    between atoms: _377  and  _379
REMARK  160  A    between atoms: _379  and  _380
REMARK  161  A    between atoms: _379  and  _382
REMARK  162  A    between atoms: _382  and  _383
REMARK  163  A    between atoms: _383  and  _384
REMARK  164  A    between atoms: _384  and  _385
REMARK  165  A    between atoms: _394  and  _396
REMARK  166  A    between atoms: _396  and  _397
REMARK  167  A    between atoms: _396  and  _399
REMARK  168  A    between atoms: _399  and  _400
REMARK  169  A    between atoms: _403  and  _405
REMARK  170  A    between atoms: _405  and  _406
REMARK  171  A    between atoms: _405  and  _408
REMARK  172  A    between atoms: _408  and  _409
REMARK  173  A    between atoms: _414  and  _415
REMARK  174  A    between atoms: _417  and  _419
REMARK  175  A    between atoms: _419  and  _420
REMARK  176  A    between atoms: _422  and  _424
REMARK  177  A    between atoms: _424  and  _425
REMARK  178  A    between atoms: _424  and  _427
REMARK  179  A    between atoms: _427  and  _428
REMARK  180  A    between atoms: _430  and  _432
REMARK  181  A    between atoms: _432  and  _433
REMARK  182  A    between atoms: _432  and  _435
REMARK  183  A    between atoms: _435  and  _436
REMARK  184  A    between atoms: _436  and  _437
REMARK  185  A    between atoms: _437  and  _438
REMARK  186  A    between atoms: _447  and  _449
REMARK  187  A    between atoms: _449  and  _450
REMARK  188  A    between atoms: _449  and  _452
REMARK  189  A    between atoms: _452  and  _453
REMARK  190  A    between atoms: _453  and  _454
REMARK  191  A    between atoms: _456  and  _458
REMARK  192  A    between atoms: _458  and  _459
REMARK  193  A    between atoms: _458  and  _461
REMARK  194  A    between atoms: _461  and  _462
REMARK  195  A    between atoms: _465  and  _467
REMARK  196  A    between atoms: _467  and  _468
REMARK  197  A    between atoms: _467  and  _470
REMARK  198  A    between atoms: _470  and  _471
REMARK  199  A    between atoms: _476  and  _478
REMARK  200  A    between atoms: _478  and  _479
REMARK  201  A    between atoms: _481  and  _483
REMARK  202  A    between atoms: _483  and  _484
REMARK  203  A    between atoms: _483  and  _486
REMARK  204  A    between atoms: _486  and  _487
REMARK  205  A    between atoms: _489  and  _491
REMARK  206  A    between atoms: _491  and  _492
REMARK  207  A    between atoms: _491  and  _494
REMARK  208  A    between atoms: _494  and  _495
REMARK  209  A    between atoms: _495  and  _496
REMARK  210  A    between atoms: _498  and  _500
REMARK  211  A    between atoms: _500  and  _501
REMARK  212  A    between atoms: _500  and  _503
REMARK  213  A    between atoms: _503  and  _504
REMARK  214  A    between atoms: _504  and  _505
REMARK  215  A    between atoms: _505  and  _506
REMARK  216  A    between atoms: _516  and  _517
REMARK  217  A    between atoms: _522  and  _524
REMARK  218  A    between atoms: _524  and  _525
REMARK  219  A    between atoms: _524  and  _527
REMARK  220  A    between atoms: _527  and  _528
REMARK  221  A    between atoms: _533  and  _534
REMARK  222  A    between atoms: _536  and  _538
REMARK  223  A    between atoms: _538  and  _539
REMARK  224  A    between atoms: _538  and  _541
REMARK  225  A    between atoms: _541  and  _542
REMARK  226  A    between atoms: _545  and  _547
REMARK  227  A    between atoms: _547  and  _548
REMARK  228  A    between atoms: _547  and  _550
REMARK  229  A    between atoms: _550  and  _551
REMARK  230  A    between atoms: _557  and  _559
REMARK  231  A    between atoms: _559  and  _560
REMARK  232  A    between atoms: _559  and  _562
REMARK  233  A    between atoms: _562  and  _563
REMARK  234  A    between atoms: _566  and  _568
REMARK  235  A    between atoms: _568  and  _569
REMARK  236  A    between atoms: _572  and  _574
REMARK  237  A    between atoms: _574  and  _575
REMARK  238  A    between atoms: _574  and  _577
REMARK  239  A    between atoms: _577  and  _578
REMARK                            x       y       z     vdW  Elec       q    Type
REMARK                         _______ _______ _______ _____ _____    ______ ____
ROOT
ATOM      1  CG  TYR A   1      23.256  23.474   8.823  0.00  0.00    -0.020 A 
ATOM      2  CD2 TYR A   1      23.518  22.462   9.748  0.00  0.00    -0.001 A 
ATOM      3  CE2 TYR A   1      23.857  21.188   9.339  0.00  0.00    +0.036 A 
ATOM      4  CZ  TYR A   1      23.933  20.904   7.984  0.00  0.00    +0.134 A 
ATOM      5  CE1 TYR A   1      23.672  21.887   7.051  0.00  0.00    +0.036 A 
ATOM      6  CD1 TYR A   1      23.330  23.156   7.470  0.00  0.00    -0.001 A 
ENDROOT
BRANCH   4   7
ATOM      7  OH  TYR A   1      24.266  19.641   7.557  0.00  0.00    -0.506 OA
ATOM      8  HH  TYR A   1      25.164  19.404   7.899  0.00  0.00    +0.292 HD
ENDBRANCH   4   7
BRANCH   1   9
ATOM      9  CB  TYR A   1      22.861  24.865   9.276  0.00  0.00    +0.051 C 
BRANCH   9  10
ATOM     10  CA  TYR A   1      23.747  25.999   8.746  0.00  0.00    +0.137 C 
BRANCH  10  11
ATOM     11  N   TYR A   1      25.062  25.935   9.369  0.00  0.00    -0.239 NA
ATOM     12  H   TYR A   1      25.257  25.153  10.026  0.00  0.00    +0.142 HD
ENDBRANCH  10  11
BRANCH  10  13
ATOM     13  C   TYR A   1      23.028  27.333   8.966  0.00  0.00    +0.224 C 
ATOM     14  O   TYR A   1      22.304  27.802   8.092  0.00  0.00    -0.287 OA
ENDBRANCH  10  13
ENDBRANCH   9  10
ENDBRANCH   1   9
TORSDOF 5
REMARK  Name = ../refined-set-2016/2w8w/2w8w_pocket.pdb
REMARK  239 active torsions:
REMARK  status: ('A' for Active; 'I' for Inactive)
REMARK    1  A    between atoms: _1  and  _3
REMARK    2  A    between atoms: _3  and  _4
REMARK    3  A    between atoms: _6  and  _8
REMARK    4  A    between atoms: _8  and  _9
REMARK    5  A    between atoms: _8  and  _11
REMARK    6  A    between atoms: _11  and  _12
REMARK    7  A    between atoms: _17  and  _18
REMARK    8  A    between atoms: _20  and  _22
REMARK    9  A    between atoms: _22  and  _23
REMARK   10  A    between atoms: _22  and  _25
REMARK   11  A    between atoms: _25  and  _26
REMARK   12  A    between atoms: _31  and  _32
REMARK   13  A    between atoms: _34  and  _36
REMARK   14  A    between atoms: _36  and  _37
REMARK   15  A    between atoms: _36  and  _39
REMARK   16  A    between atoms: _39  and  _40
REMARK   17  A    between atoms: _42  and  _44
REMARK   18  A    between atoms: _44  and  _45
REMARK   19  A    between atoms: _44  and  _47
REMARK   20  A    between atoms: _47  and  _48
REMARK   21  A    between atoms: _51  and  _53
REMARK   22  A    between atoms: _53  and  _54
REMARK   23  A    between atoms: _56  and  _58
REMARK   24  A    between atoms: _58  and  _59
REMARK   25  A    between atoms: _58  and  _61
REMARK   26  A    between atoms: _61  and  _62
REMARK   27  A    between atoms: _67  and  _68
REMARK   28  A    between atoms: _70  and  _72
REMARK   29  A    between atoms: _72  and  _73
REMARK   30  A    between atoms: _72  and  _75
REMARK   31  A    between atoms: _75  and  _76
REMARK   32  A    between atoms: _76  and  _77
REMARK   33  A    between atoms: _79  and  _81
REMARK   34  A    between atoms: _81  and  _82
REMARK   35  A    between atoms: _85  and  _87
REMARK   36  A    between atoms: _87  and  _88
REMARK   37  A    between atoms: _87  and  _90
REMARK   38  A    between atoms: _90  and  _91
REMARK   39  A    between atoms: _96  and  _98
REMARK   40  A    between atoms: _98  and  _99
REMARK   41  A    between atoms: _98  and  _101
REMARK   42  A    between atoms: _101  and  _102
REMARK   43  A    between atoms: _105  and  _107
REMARK   44  A    between atoms: _107  and  _108
REMARK   45  A    between atoms: _107  and  _110
REMARK   46  A    between atoms: _110  and  _111
REMARK   47  A    between atoms: _114  and  _116
REMARK   48  A    between atoms: _116  and  _117
REMARK   49  A    between atoms: _116  and  _119
REMARK   50  A    between atoms: _119  and  _120
REMARK   51  A    between atoms: _122  and  _124
REMARK   52  A    between atoms: _124  and  _125
REMARK   53  A    between atoms: _124  and  _127
REMARK   54  A    between atoms: _127  and  _128
REMARK   55  A    between atoms: _133  and  _135
REMARK   56  A    between atoms: _135  and  _136
REMARK   57  A    between atoms: _139  and  _141
REMARK   58  A    between atoms: _141  and  _142
REMARK   59  A    between atoms: _141  and  _144
REMARK   60  A    between atoms: _144  and  _145
REMARK   61  A    between atoms: _147  and  _149
REMARK   62  A    between atoms: _149  and  _150
REMARK   63  A    between atoms: _149  and  _152
REMARK   64  A    between atoms: _152  and  _153
REMARK   65  A    between atoms: _156  and  _158
REMARK   66  A    between atoms: _158  and  _159
REMARK   67  A    between atoms: _158  and  _161
REMARK   68  A    between atoms: _161  and  _162
REMARK   69  A    between atoms: _165  and  _167
REMARK   70  A    between atoms: _167  and  _168
REMARK   71  A    between atoms: _167  and  _170
REMARK   72  A    between atoms: _170  and  _171
REMARK   73  A    between atoms: _171  and  _172
REMARK   74  A    between atoms: _175  and  _177
REMARK   75  A    between atoms: _177  and  _178
REMARK   76  A    between atoms: _180  and  _182
REMARK   77  A    between atoms: _182  and  _183
REMARK   78  A    between atoms: _182  and  _185
REMARK   79  A    between atoms: _188  and  _190
REMARK   80  A    between atoms: _190  and  _191
REMARK   81  A    between atoms: _190  and  _193
REMARK   82  A    between atoms: _193  and  _194
REMARK   83  A    between atoms: _199  and  _200
REMARK   84  A    between atoms: _202  and  _204
REMARK   85  A    between atoms: _204  and  _205
REMARK   86  A    between atoms: _204  and  _207
REMARK   87  A    between atoms: _207  and  _208
REMARK   88  A    between atoms: _210  and  _212
REMARK   89  A    between atoms: _212  and  _213
REMARK   90  A    between atoms: _212  and  _215
REMARK   91  A    between atoms: _215  and  _216
REMARK   92  A    between atoms: _216  and  _217
REMARK   93  A    between atoms: _219  and  _221
REMARK   94  A    between atoms: _221  and  _222
REMARK   95  A    between atoms: _221  and  _224
REMARK   96  A    between atoms: _224  and  _225
REMARK   97  A    between atoms: _228  and  _230
REMARK   98  A    between atoms: _230  and  _231
REMARK   99  A    between atoms: _230  and  _233
REMARK  100  A    between atoms: _233  and  _234
REMARK  101  A    between atoms: _234  and  _235
REMARK  102  A    between atoms: _238  and  _240
REMARK  103  A    between atoms: _240  and  _241
REMARK  104  A    between atoms: _244  and  _246
REMARK  105  A    between atoms: _246  and  _247
REMARK  106  A    between atoms: _246  and  _249
REMARK  107  A    between atoms: _249  and  _250
REMARK  108  A    between atoms: _255  and  _257
REMARK  109  A    between atoms: _257  and  _258
REMARK  110  A    between atoms: _257  and  _260
REMARK  111  A    between atoms: _260  and  _261
REMARK  112  A    between atoms: _263  and  _265
REMARK  113  A    between atoms: _265  and  _266
REMARK  114  A    between atoms: _265  and  _268
REMARK  115  A    between atoms: _271  and  _273
REMARK  116  A    between atoms: _273  and  _274
REMARK  117  A    between atoms: _276  and  _278
REMARK  118  A    between atoms: _278  and  _279
REMARK  119  A    between atoms: _278  and  _281
REMARK  120  A    between atoms: _281  and  _282
REMARK  121  A    between atoms: _285  and  _287
REMARK  122  A    between atoms: _287  and  _288
REMARK  123  A    between atoms: _287  and  _290
REMARK  124  A    between atoms: _290  and  _291
REMARK  125  A    between atoms: _297  and  _299
REMARK  126  A    between atoms: _299  and  _300
REMARK  127  A    between atoms: _299  and  _302
REMARK  128  A    between atoms: _302  and  _303
REMARK  129  A    between atoms: _305  and  _307
REMARK  130  A    between atoms: _307  and  _308
REMARK  131  A    between atoms: _307  and  _310
REMARK  132  A    between atoms: _310  and  _311
REMARK  133  A    between atoms: _311  and  _312
REMARK  134  A    between atoms: _312  and  _313
REMARK  135  A    between atoms: _313  and  _314
REMARK  136  A    between atoms: _318  and  _320
REMARK  137  A    between atoms: _320  and  _321
REMARK  138  A    between atoms: _320  and  _323
REMARK  139  A    between atoms: _323  and  _324
REMARK  140  A    between atoms: _327  and  _329
REMARK  141  A    between atoms: _329  and  _330
REMARK  142  A    between atoms: _329  and  _332
REMARK  143  A    between atoms: _335  and  _337
REMARK  144  A    between atoms: _337  and  _338
REMARK  145  A    between atoms: _340  and  _342
REMARK  146  A    between atoms: _342  and  _343
REMARK  147  A    between atoms: _345  and  _347
REMARK  148  A    between atoms: _347  and  _348
REMARK  149  A    between atoms: _347  and  _350
REMARK  150  A    between atoms: _350  and  _351
REMARK  151  A    between atoms: _357  and  _359
REMARK  152  A    between atoms: _359  and  _360
REMARK  153  A    between atoms: _359  and  _362
REMARK  154  A    between atoms: _362  and  _363
REMARK  155  A    between atoms: _366  and  _368
REMARK  156  A    between atoms: _368  and  _369
REMARK  157  A    between atoms: _368  and  _371
REMARK  158  A    between atoms: _371  and  _372
REMARK  159  A    between atoms: _377  and  _379
REMARK  160  A    between atoms: _379  and  _380
REMARK  161  A    between atoms: _379  and  _382
REMARK  162  A    between atoms: _382  and  _383
REMARK  163  A    between atoms: _383  and  _384
REMARK  164  A    between atoms: _384  and  _385
REMARK  165  A    between atoms: _394  and  _396
REMARK  166  A    between atoms: _396  and  _397
REMARK  167  A    between atoms: _396  and  _399
REMARK  168  A    between atoms: _399  and  _400
REMARK  169  A    between atoms: _403  and  _405
REMARK  170  A    between atoms: _405  and  _406
REMARK  171  A    between atoms: _405  and  _408
REMARK  172  A    between atoms: _408  and  _409
REMARK  173  A    between atoms: _414  and  _415
REMARK  174  A    between atoms: _417  and  _419
REMARK  175  A    between atoms: _419  and  _420
REMARK  176  A    between atoms: _422  and  _424
REMARK  177  A    between atoms: _424  and  _425
REMARK  178  A    between atoms: _424  and  _427
REMARK  179  A    between atoms: _427  and  _428
REMARK  180  A    between atoms: _430  and  _432
REMARK  181  A    between atoms: _432  and  _433
REMARK  182  A    between atoms: _432  and  _435
REMARK  183  A    between atoms: _435  and  _436
REMARK  184  A    between atoms: _436  and  _437
REMARK  185  A    between atoms: _437  and  _438
REMARK  186  A    between atoms: _447  and  _449
REMARK  187  A    between atoms: _449  and  _450
REMARK  188  A    between atoms: _449  and  _452
REMARK  189  A    between atoms: _452  and  _453
REMARK  190  A    between atoms: _453  and  _454
REMARK  191  A    between atoms: _456  and  _458
REMARK  192  A    between atoms: _458  and  _459
REMARK  193  A    between atoms: _458  and  _461
REMARK  194  A    between atoms: _461  and  _462
REMARK  195  A    between atoms: _465  and  _467
REMARK  196  A    between atoms: _467  and  _468
REMARK  197  A    between atoms: _467  and  _470
REMARK  198  A    between atoms: _470  and  _471
REMARK  199  A    between atoms: _476  and  _478
REMARK  200  A    between atoms: _478  and  _479
REMARK  201  A    between atoms: _481  and  _483
REMARK  202  A    between atoms: _483  and  _484
REMARK  203  A    between atoms: _483  and  _486
REMARK  204  A    between atoms: _486  and  _487
REMARK  205  A    between atoms: _489  and  _491
REMARK  206  A    between atoms: _491  and  _492
REMARK  207  A    between atoms: _491  and  _494
REMARK  208  A    between atoms: _494  and  _495
REMARK  209  A    between atoms: _495  and  _496
REMARK  210  A    between atoms: _498  and  _500
REMARK  211  A    between atoms: _500  and  _501
REMARK  212  A    between atoms: _500  and  _503
REMARK  213  A    between atoms: _503  and  _504
REMARK  214  A    between atoms: _504  and  _505
REMARK  215  A    between atoms: _505  and  _506
REMARK  216  A    between atoms: _516  and  _517
REMARK  217  A    between atoms: _522  and  _524
REMARK  218  A    between atoms: _524  and  _525
REMARK  219  A    between atoms: _524  and  _527
REMARK  220  A    between atoms: _527  and  _528
REMARK  221  A    between atoms: _533  and  _534
REMARK  222  A    between atoms: _536  and  _538
REMARK  223  A    between atoms: _538  and  _539
REMARK  224  A    between atoms: _538  and  _541
REMARK  225  A    between atoms: _541  and  _542
REMARK  226  A    between atoms: _545  and  _547
REMARK  227  A    between atoms: _547  and  _548
REMARK  228  A    between atoms: _547  and  _550
REMARK  229  A    between atoms: _550  and  _551
REMARK  230  A    between atoms: _557  and  _559
REMARK  231  A    between atoms: _559  and  _560
REMARK  232  A    between atoms: _559  and  _562
REMARK  233  A    between atoms: _562  and  _563
REMARK  234  A    between atoms: _566  and  _568
REMARK  235  A    between atoms: _568  and  _569
REMARK  236  A    between atoms: _572  and  _574
REMARK  237  A    between atoms: _574  and  _575
REMARK  238  A    between atoms: _574  and  _577
REMARK  239  A    between atoms: _577  and  _578
REMARK                            x       y       z     vdW  Elec       q    Type
REMARK                         _______ _______ _______ _____ _____    ______ ____
ROOT
ATOM      1  C   TYR A   4      32.237  12.555  20.377  0.00  0.00    +0.241 C 
ATOM      2  N   MET A   5      32.783  13.255  21.375  0.00  0.00    -0.297 N 
ATOM      3  H   MET A   5      33.188  14.191  21.170  0.00  0.00    +0.150 HD
ATOM      4  O   TYR A   4      31.697  11.446  20.530  0.00  0.00    -0.273 OA
ENDROOT
BRANCH   2   5
ATOM      5  CA  MET A   5      32.830  12.749  22.748  0.00  0.00    +0.149 C 
BRANCH   5   6
ATOM      6  C   MET A   5      31.455  12.531  23.380  0.00  0.00    +0.241 C 
ATOM      7  O   MET A   5      31.311  11.637  24.197  0.00  0.00    -0.273 OA
ATOM      8  N   ALA A   6      30.464  13.346  23.021  0.00  0.00    -0.297 N 
ATOM      9  H   ALA A   6      30.670  14.149  22.393  0.00  0.00    +0.150 HD
BRANCH   8  10
ATOM     10  CA  ALA A   6      29.091  13.138  23.490  0.00  0.00    +0.149 C 
ATOM     11  CB  ALA A   6      28.178  14.261  23.028  0.00  0.00    +0.031 C 
BRANCH  10  12
ATOM     12  C   ALA A   6      28.573  11.787  23.008  0.00  0.00    +0.241 C 
ATOM     13  O   ALA A   6      27.981  11.036  23.785  0.00  0.00    -0.273 OA
ATOM     14  N   ASN A   7      28.817  11.472  21.735  0.00  0.00    -0.297 N 
ATOM     15  H   ASN A   7      29.300  12.164  21.127  0.00  0.00    +0.150 HD
BRANCH  14  16
ATOM     16  CA  ASN A   7      28.422  10.174  21.168  0.00  0.00    +0.158 C 
BRANCH  16  17
ATOM     17  C   ASN A   7      29.282   9.042  21.700  0.00  0.00    +0.241 C 
ATOM     18  O   ASN A   7      28.758   8.032  22.174  0.00  0.00    -0.273 OA
ATOM     19  N   LEU A   8      30.600   9.212  21.638  0.00  0.00    -0.298 N 
ATOM     20  H   LEU A   8      30.987  10.034  21.131  0.00  0.00    +0.150 HD
BRANCH  19  21
ATOM     21  CA  LEU A   8      31.515   8.259  22.273  0.00  0.00    +0.137 C 
BRANCH  21  22
ATOM     22  C   LEU A   8      31.042   7.937  23.678  0.00  0.00    +0.227 C 
ATOM     23  O   LEU A   8      30.906   6.770  24.049  0.00  0.00    -0.286 OA
ENDBRANCH  21  22
BRANCH  21  24
ATOM     24  CB  LEU A   8      32.934   8.836  22.361  0.00  0.00    +0.028 C 
BRANCH  24  25
ATOM     25  CG  LEU A   8      34.013   7.883  22.871  0.00  0.00    +0.002 C 
ATOM     26  CD2 LEU A   8      35.265   8.657  23.293  0.00  0.00    +0.000 C 
ATOM     27  CD1 LEU A   8      34.334   6.861  21.802  0.00  0.00    +0.000 C 
ENDBRANCH  24  25
ENDBRANCH  21  24
ENDBRANCH  19  21
ENDBRANCH  16  17
BRANCH  16  28
ATOM     28  CB  ASN A   7      28.441  10.195  19.630  0.00  0.00    +0.114 C 
BRANCH  28  29
ATOM     29  CG  ASN A   7      27.080  10.522  19.034  0.00  0.00    +0.222 C 
ATOM     30  OD1 ASN A   7      26.042  10.218  19.624  0.00  0.00    -0.275 OA
ATOM     31  ND2 ASN A   7      27.078  11.132  17.860  0.00  0.00    -0.329 N 
ATOM     32 HD21 ASN A   7      26.177  11.373  17.401  0.00  0.00    +0.145 HD
ATOM     33 HD22 ASN A   7      27.978  11.371  17.396  0.00  0.00    +0.145 HD
ENDBRANCH  28  29
ENDBRANCH  16  28
ENDBRANCH  14  16
ENDBRANCH  10  12
ENDBRANCH   8  10
ENDBRANCH   5   6
BRANCH   5  34
ATOM     34  CB  MET A   5      33.673  13.665  23.645  0.00  0.00    +0.041 C 
BRANCH  34  35
ATOM     35  CG  MET A   5      35.164  13.556  23.363  0.00  0.00    +0.060 C 
BRANCH  35  36
ATOM     36  SD  MET A   5      36.122  14.850  24.173  0.00  0.00    -0.139 S 
ATOM     37  CE  MET A   5      36.327  14.166  25.814  0.00  0.00    +0.069 C 
ENDBRANCH  35  36
ENDBRANCH  34  35
ENDBRANCH   5  34
ENDBRANCH   2   5
BRANCH   1  38
ATOM     38  CA  TYR A   4      32.264  13.227  19.001  0.00  0.00    +0.153 C 
BRANCH  38  41
ATOM     39  C   GLY A   3      30.472  14.753  19.602  0.00  0.00    +0.243 C 
ATOM     40  O   GLY A   3      29.723  13.827  19.907  0.00  0.00    -0.273 OA
ATOM     41  N   TYR A   4      31.694  14.563  19.115  0.00  0.00    -0.297 N 
ATOM     42  H   TYR A   4      32.254  15.384  18.809  0.00  0.00    +0.150 HD
BRANCH  39  43
ATOM     43  CA  GLY A   3      30.029  16.197  19.745  0.00  0.00    +0.176 C 
BRANCH  43  46
ATOM     44  C   THR A   2      31.696  16.884  21.397  0.00  0.00    +0.243 C 
ATOM     45  O   THR A   2      31.239  16.125  22.279  0.00  0.00    -0.273 OA
ATOM     46  N   GLY A   3      31.135  17.044  20.206  0.00  0.00    -0.295 N 
ATOM     47  H   GLY A   3      31.490  17.794  19.579  0.00  0.00    +0.150 HD
BRANCH  44  48
ATOM     48  CA  THR A   2      32.958  17.704  21.628  0.00  0.00    +0.176 C 
BRANCH  48  50
ATOM     49  C   SER A   1      33.750  18.923  23.597  0.00  0.00    +0.241 C 
ATOM     50  N   THR A   2      33.233  17.819  23.060  0.00  0.00    -0.295 N 
ATOM     51  H   THR A   2      33.018  17.012  23.680  0.00  0.00    +0.150 HD
ATOM     52  O   SER A   1      34.254  19.827  22.931  0.00  0.00    -0.274 OA
BRANCH  49  53
ATOM     53  CA  SER A   1      33.689  19.041  25.119  0.00  0.00    +0.174 C 
BRANCH  53  54
ATOM     54  N   SER A   1      32.710  18.148  25.717  0.00  0.00    -0.236 NA
ATOM     55  H   SER A   1      33.026  17.259  26.155  0.00  0.00    +0.142 HD
ENDBRANCH  53  54
BRANCH  53  56
ATOM     56  CB  SER A   1      35.065  18.844  25.763  0.00  0.00    +0.163 C 
BRANCH  56  57
ATOM     57  OG  SER A   1      35.057  19.412  27.070  0.00  0.00    -0.380 OA
ATOM     58  H   SER A   1      35.945  19.286  27.489  0.00  0.00    +0.211 HD
ENDBRANCH  56  57
ENDBRANCH  53  56
ENDBRANCH  49  53
ENDBRANCH  48  50
BRANCH  48  59
ATOM     59  CB  THR A   2      34.100  17.036  20.843  0.00  0.00    +0.137 C 
ATOM     60  CG2 THR A   2      35.463  17.784  21.035  0.00  0.00    +0.034 C 
BRANCH  59  61
ATOM     61  OG1 THR A   2      34.230  15.672  21.247  0.00  0.00    -0.382 OA
ATOM     62  HG1 THR A   2      34.966  15.247  20.739  0.00  0.00    +0.210 HD
ENDBRANCH  59  61
ENDBRANCH  48  59
ENDBRANCH  44  48
ENDBRANCH  43  46
ENDBRANCH  39  43
ENDBRANCH  38  41
BRANCH  38  63
ATOM     63  CB  TYR A   4      33.686  13.324  18.485  0.00  0.00    +0.055 C 
BRANCH  63  64
ATOM     64  CG  TYR A   4      34.416  12.010  18.454  0.00  0.00    -0.020 A 
ATOM     65  CD2 TYR A   4      35.123  11.557  19.565  0.00  0.00    -0.001 A 
ATOM     66  CE2 TYR A   4      35.804  10.351  19.536  0.00  0.00    +0.036 A 
ATOM     67  CZ  TYR A   4      35.778   9.584  18.387  0.00  0.00    +0.134 A 
ATOM     68  CE1 TYR A   4      35.083  10.011  17.276  0.00  0.00    +0.036 A 
ATOM     69  CD1 TYR A   4      34.411  11.222  17.312  0.00  0.00    -0.001 A 
BRANCH  67  70
ATOM     70  OH  TYR A   4      36.443   8.393  18.342  0.00  0.00    -0.506 OA
ATOM     71  HH  TYR A   4      36.318   7.980  17.451  0.00  0.00    +0.292 HD
ENDBRANCH  67  70
ENDBRANCH  63  64
ENDBRANCH  38  63
ENDBRANCH   1  38
TORSDOF 30
REMARK  Name = ../refined-set-2016/2w8w/2w8w_pocket.pdb
REMARK  239 active torsions:
REMARK  status: ('A' for Active; 'I' for Inactive)
REMARK    1  A    between atoms: _1  and  _3
REMARK    2  A    between atoms: _3  and  _4
REMARK    3  A    between atoms: _6  and  _8
REMARK    4  A    between atoms: _8  and  _9
REMARK    5  A    between atoms: _8  and  _11
REMARK    6  A    between atoms: _11  and  _12
REMARK    7  A    between atoms: _17  and  _18
REMARK    8  A    between atoms: _20  and  _22
REMARK    9  A    between atoms: _22  and  _23
REMARK   10  A    between atoms: _22  and  _25
REMARK   11  A    between atoms: _25  and  _26
REMARK   12  A    between atoms: _31  and  _32
REMARK   13  A    between atoms: _34  and  _36
REMARK   14  A    between atoms: _36  and  _37
REMARK   15  A    between atoms: _36  and  _39
REMARK   16  A    between atoms: _39  and  _40
REMARK   17  A    between atoms: _42  and  _44
REMARK   18  A    between atoms: _44  and  _45
REMARK   19  A    between atoms: _44  and  _47
REMARK   20  A    between atoms: _47  and  _48
REMARK   21  A    between atoms: _51  and  _53
REMARK   22  A    between atoms: _53  and  _54
REMARK   23  A    between atoms: _56  and  _58
REMARK   24  A    between atoms: _58  and  _59
REMARK   25  A    between atoms: _58  and  _61
REMARK   26  A    between atoms: _61  and  _62
REMARK   27  A    between atoms: _67  and  _68
REMARK   28  A    between atoms: _70  and  _72
REMARK   29  A    between atoms: _72  and  _73
REMARK   30  A    between atoms: _72  and  _75
REMARK   31  A    between atoms: _75  and  _76
REMARK   32  A    between atoms: _76  and  _77
REMARK   33  A    between atoms: _79  and  _81
REMARK   34  A    between atoms: _81  and  _82
REMARK   35  A    between atoms: _85  and  _87
REMARK   36  A    between atoms: _87  and  _88
REMARK   37  A    between atoms: _87  and  _90
REMARK   38  A    between atoms: _90  and  _91
REMARK   39  A    between atoms: _96  and  _98
REMARK   40  A    between atoms: _98  and  _99
REMARK   41  A    between atoms: _98  and  _101
REMARK   42  A    between atoms: _101  and  _102
REMARK   43  A    between atoms: _105  and  _107
REMARK   44  A    between atoms: _107  and  _108
REMARK   45  A    between atoms: _107  and  _110
REMARK   46  A    between atoms: _110  and  _111
REMARK   47  A    between atoms: _114  and  _116
REMARK   48  A    between atoms: _116  and  _117
REMARK   49  A    between atoms: _116  and  _119
REMARK   50  A    between atoms: _119  and  _120
REMARK   51  A    between atoms: _122  and  _124
REMARK   52  A    between atoms: _124  and  _125
REMARK   53  A    between atoms: _124  and  _127
REMARK   54  A    between atoms: _127  and  _128
REMARK   55  A    between atoms: _133  and  _135
REMARK   56  A    between atoms: _135  and  _136
REMARK   57  A    between atoms: _139  and  _141
REMARK   58  A    between atoms: _141  and  _142
REMARK   59  A    between atoms: _141  and  _144
REMARK   60  A    between atoms: _144  and  _145
REMARK   61  A    between atoms: _147  and  _149
REMARK   62  A    between atoms: _149  and  _150
REMARK   63  A    between atoms: _149  and  _152
REMARK   64  A    between atoms: _152  and  _153
REMARK   65  A    between atoms: _156  and  _158
REMARK   66  A    between atoms: _158  and  _159
REMARK   67  A    between atoms: _158  and  _161
REMARK   68  A    between atoms: _161  and  _162
REMARK   69  A    between atoms: _165  and  _167
REMARK   70  A    between atoms: _167  and  _168
REMARK   71  A    between atoms: _167  and  _170
REMARK   72  A    between atoms: _170  and  _171
REMARK   73  A    between atoms: _171  and  _172
REMARK   74  A    between atoms: _175  and  _177
REMARK   75  A    between atoms: _177  and  _178
REMARK   76  A    between atoms: _180  and  _182
REMARK   77  A    between atoms: _182  and  _183
REMARK   78  A    between atoms: _182  and  _185
REMARK   79  A    between atoms: _188  and  _190
REMARK   80  A    between atoms: _190  and  _191
REMARK   81  A    between atoms: _190  and  _193
REMARK   82  A    between atoms: _193  and  _194
REMARK   83  A    between atoms: _199  and  _200
REMARK   84  A    between atoms: _202  and  _204
REMARK   85  A    between atoms: _204  and  _205
REMARK   86  A    between atoms: _204  and  _207
REMARK   87  A    between atoms: _207  and  _208
REMARK   88  A    between atoms: _210  and  _212
REMARK   89  A    between atoms: _212  and  _213
REMARK   90  A    between atoms: _212  and  _215
REMARK   91  A    between atoms: _215  and  _216
REMARK   92  A    between atoms: _216  and  _217
REMARK   93  A    between atoms: _219  and  _221
REMARK   94  A    between atoms: _221  and  _222
REMARK   95  A    between atoms: _221  and  _224
REMARK   96  A    between atoms: _224  and  _225
REMARK   97  A    between atoms: _228  and  _230
REMARK   98  A    between atoms: _230  and  _231
REMARK   99  A    between atoms: _230  and  _233
REMARK  100  A    between atoms: _233  and  _234
REMARK  101  A    between atoms: _234  and  _235
REMARK  102  A    between atoms: _238  and  _240
REMARK  103  A    between atoms: _240  and  _241
REMARK  104  A    between atoms: _244  and  _246
REMARK  105  A    between atoms: _246  and  _247
REMARK  106  A    between atoms: _246  and  _249
REMARK  107  A    between atoms: _249  and  _250
REMARK  108  A    between atoms: _255  and  _257
REMARK  109  A    between atoms: _257  and  _258
REMARK  110  A    between atoms: _257  and  _260
REMARK  111  A    between atoms: _260  and  _261
REMARK  112  A    between atoms: _263  and  _265
REMARK  113  A    between atoms: _265  and  _266
REMARK  114  A    between atoms: _265  and  _268
REMARK  115  A    between atoms: _271  and  _273
REMARK  116  A    between atoms: _273  and  _274
REMARK  117  A    between atoms: _276  and  _278
REMARK  118  A    between atoms: _278  and  _279
REMARK  119  A    between atoms: _278  and  _281
REMARK  120  A    between atoms: _281  and  _282
REMARK  121  A    between atoms: _285  and  _287
REMARK  122  A    between atoms: _287  and  _288
REMARK  123  A    between atoms: _287  and  _290
REMARK  124  A    between atoms: _290  and  _291
REMARK  125  A    between atoms: _297  and  _299
REMARK  126  A    between atoms: _299  and  _300
REMARK  127  A    between atoms: _299  and  _302
REMARK  128  A    between atoms: _302  and  _303
REMARK  129  A    between atoms: _305  and  _307
REMARK  130  A    between atoms: _307  and  _308
REMARK  131  A    between atoms: _307  and  _310
REMARK  132  A    between atoms: _310  and  _311
REMARK  133  A    between atoms: _311  and  _312
REMARK  134  A    between atoms: _312  and  _313
REMARK  135  A    between atoms: _313  and  _314
REMARK  136  A    between atoms: _318  and  _320
REMARK  137  A    between atoms: _320  and  _321
REMARK  138  A    between atoms: _320  and  _323
REMARK  139  A    between atoms: _323  and  _324
REMARK  140  A    between atoms: _327  and  _329
REMARK  141  A    between atoms: _329  and  _330
REMARK  142  A    between atoms: _329  and  _332
REMARK  143  A    between atoms: _335  and  _337
REMARK  144  A    between atoms: _337  and  _338
REMARK  145  A    between atoms: _340  and  _342
REMARK  146  A    between atoms: _342  and  _343
REMARK  147  A    between atoms: _345  and  _347
REMARK  148  A    between atoms: _347  and  _348
REMARK  149  A    between atoms: _347  and  _350
REMARK  150  A    between atoms: _350  and  _351
REMARK  151  A    between atoms: _357  and  _359
REMARK  152  A    between atoms: _359  and  _360
REMARK  153  A    between atoms: _359  and  _362
REMARK  154  A    between atoms: _362  and  _363
REMARK  155  A    between atoms: _366  and  _368
REMARK  156  A    between atoms: _368  and  _369
REMARK  157  A    between atoms: _368  and  _371
REMARK  158  A    between atoms: _371  and  _372
REMARK  159  A    between atoms: _377  and  _379
REMARK  160  A    between atoms: _379  and  _380
REMARK  161  A    between atoms: _379  and  _382
REMARK  162  A    between atoms: _382  and  _383
REMARK  163  A    between atoms: _383  and  _384
REMARK  164  A    between atoms: _384  and  _385
REMARK  165  A    between atoms: _394  and  _396
REMARK  166  A    between atoms: _396  and  _397
REMARK  167  A    between atoms: _396  and  _399
REMARK  168  A    between atoms: _399  and  _400
REMARK  169  A    between atoms: _403  and  _405
REMARK  170  A    between atoms: _405  and  _406
REMARK  171  A    between atoms: _405  and  _408
REMARK  172  A    between atoms: _408  and  _409
REMARK  173  A    between atoms: _414  and  _415
REMARK  174  A    between atoms: _417  and  _419
REMARK  175  A    between atoms: _419  and  _420
REMARK  176  A    between atoms: _422  and  _424
REMARK  177  A    between atoms: _424  and  _425
REMARK  178  A    between atoms: _424  and  _427
REMARK  179  A    between atoms: _427  and  _428
REMARK  180  A    between atoms: _430  and  _432
REMARK  181  A    between atoms: _432  and  _433
REMARK  182  A    between atoms: _432  and  _435
REMARK  183  A    between atoms: _435  and  _436
REMARK  184  A    between atoms: _436  and  _437
REMARK  185  A    between atoms: _437  and  _438
REMARK  186  A    between atoms: _447  and  _449
REMARK  187  A    between atoms: _449  and  _450
REMARK  188  A    between atoms: _449  and  _452
REMARK  189  A    between atoms: _452  and  _453
REMARK  190  A    between atoms: _453  and  _454
REMARK  191  A    between atoms: _456  and  _458
REMARK  192  A    between atoms: _458  and  _459
REMARK  193  A    between atoms: _458  and  _461
REMARK  194  A    between atoms: _461  and  _462
REMARK  195  A    between atoms: _465  and  _467
REMARK  196  A    between atoms: _467  and  _468
REMARK  197  A    between atoms: _467  and  _470
REMARK  198  A    between atoms: _470  and  _471
REMARK  199  A    between atoms: _476  and  _478
REMARK  200  A    between atoms: _478  and  _479
REMARK  201  A    between atoms: _481  and  _483
REMARK  202  A    between atoms: _483  and  _484
REMARK  203  A    between atoms: _483  and  _486
REMARK  204  A    between atoms: _486  and  _487
REMARK  205  A    between atoms: _489  and  _491
REMARK  206  A    between atoms: _491  and  _492
REMARK  207  A    between atoms: _491  and  _494
REMARK  208  A    between atoms: _494  and  _495
REMARK  209  A    between atoms: _495  and  _496
REMARK  210  A    between atoms: _498  and  _500
REMARK  211  A    between atoms: _500  and  _501
REMARK  212  A    between atoms: _500  and  _503
REMARK  213  A    between atoms: _503  and  _504
REMARK  214  A    between atoms: _504  and  _505
REMARK  215  A    between atoms: _505  and  _506
REMARK  216  A    between atoms: _516  and  _517
REMARK  217  A    between atoms: _522  and  _524
REMARK  218  A    between atoms: _524  and  _525
REMARK  219  A    between atoms: _524  and  _527
REMARK  220  A    between atoms: _527  and  _528
REMARK  221  A    between atoms: _533  and  _534
REMARK  222  A    between atoms: _536  and  _538
REMARK  223  A    between atoms: _538  and  _539
REMARK  224  A    between atoms: _538  and  _541
REMARK  225  A    between atoms: _541  and  _542
REMARK  226  A    between atoms: _545  and  _547
REMARK  227  A    between atoms: _547  and  _548
REMARK  228  A    between atoms: _547  and  _550
REMARK  229  A    between atoms: _550  and  _551
REMARK  230  A    between atoms: _557  and  _559
REMARK  231  A    between atoms: _559  and  _560
REMARK  232  A    between atoms: _559  and  _562
REMARK  233  A    between atoms: _562  and  _563
REMARK  234  A    between atoms: _566  and  _568
REMARK  235  A    between atoms: _568  and  _569
REMARK  236  A    between atoms: _572  and  _574
REMARK  237  A    between atoms: _574  and  _575
REMARK  238  A    between atoms: _574  and  _577
REMARK  239  A    between atoms: _577  and  _578
REMARK                            x       y       z     vdW  Elec       q    Type
REMARK                         _______ _______ _______ _____ _____    ______ ____
ROOT
ATOM      1  CA  HIS A   3      28.227   8.650  12.103  0.00  0.00    +0.155 C 
ENDROOT
BRANCH   1   3
ATOM      2  C   SER A   2      26.992   6.709  11.431  0.00  0.00    +0.243 C 
ATOM      3  N   HIS A   3      27.001   7.890  12.029  0.00  0.00    -0.297 N 
ATOM      4  H   HIS A   3      26.127   8.270  12.445  0.00  0.00    +0.150 HD
ATOM      5  O   SER A   2      27.999   6.224  10.888  0.00  0.00    -0.273 OA
BRANCH   2   6
ATOM      6  CA  SER A   2      25.653   5.965  11.439  0.00  0.00    +0.178 C 
BRANCH   6   8
ATOM      7  C   ASP A   1      25.508   5.489   9.064  0.00  0.00    +0.239 C 
ATOM      8  N   SER A   2      25.588   5.046  10.316  0.00  0.00    -0.295 N 
ATOM      9  H   SER A   2      25.604   4.021  10.494  0.00  0.00    +0.150 HD
ATOM     10  O   ASP A   1      25.416   6.684   8.782  0.00  0.00    -0.274 OA
BRANCH   7  11
ATOM     11  CA  ASP A   1      25.547   4.438   7.970  0.00  0.00    +0.156 C 
BRANCH  11  12
ATOM     12  N   ASP A   1      24.812   3.231   8.352  0.00  0.00    -0.238 NA
ATOM     13  H   ASP A   1      23.772   3.253   8.335  0.00  0.00    +0.142 HD
ENDBRANCH  11  12
BRANCH  11  14
ATOM     14  CB  ASP A   1      24.970   5.013   6.675  0.00  0.00    +0.140 C 
BRANCH  14  15
ATOM     15  CG  ASP A   1      25.062   4.041   5.526  0.00  0.00    +0.367 C 
ATOM     16  OD2 ASP A   1      25.834   3.066   5.642  0.00  0.00    -0.246 OA
ATOM     17  OD1 ASP A   1      24.361   4.246   4.513  0.00  0.00    -0.246 OA
ENDBRANCH  14  15
ENDBRANCH  11  14
ENDBRANCH   7  11
ENDBRANCH   6   8
BRANCH   6  18
ATOM     18  CB  SER A   2      25.476   5.216  12.761  0.00  0.00    +0.166 C 
BRANCH  18  19
ATOM     19  OG  SER A   2      24.180   4.649  12.857  0.00  0.00    -0.380 OA
ATOM     20  H   SER A   2      24.043   4.013  12.111  0.00  0.00    +0.211 HD
ENDBRANCH  18  19
ENDBRANCH   6  18
ENDBRANCH   2   6
ENDBRANCH   1   3
BRANCH   1  21
ATOM     21  C   HIS A   3      29.372   7.838  12.724  0.00  0.00    +0.241 C 
ATOM     22  O   HIS A   3      29.145   6.948  13.544  0.00  0.00    -0.273 OA
ATOM     23  N   ALA A   4      30.599   8.138  12.296  0.00  0.00    -0.297 N 
ATOM     24  H   ALA A   4      30.708   8.840  11.536  0.00  0.00    +0.150 HD
BRANCH  23  25
ATOM     25  CA  ALA A   4      31.792   7.518  12.855  0.00  0.00    +0.149 C 
ATOM     26  CB  ALA A   4      33.063   8.159  12.259  0.00  0.00    +0.031 C 
BRANCH  25  27
ATOM     27  C   ALA A   4      31.832   7.581  14.391  0.00  0.00    +0.241 C 
ATOM     28  O   ALA A   4      32.284   6.634  15.033  0.00  0.00    -0.273 OA
ATOM     29  N   SER A   5      31.362   8.684  14.973  0.00  0.00    -0.295 N 
ATOM     30  H   SER A   5      30.977   9.445  14.378  0.00  0.00    +0.150 HD
BRANCH  29  31
ATOM     31  CA  SER A   5      31.373   8.855  16.438  0.00  0.00    +0.178 C 
BRANCH  31  32
ATOM     32  C   SER A   5      30.441   7.874  17.144  0.00  0.00    +0.243 C 
ATOM     33  O   SER A   5      30.703   7.464  18.276  0.00  0.00    -0.273 OA
ATOM     34  N   ILE A   6      29.358   7.501  16.471  0.00  0.00    -0.298 N 
ATOM     35  H   ILE A   6      29.164   7.937  15.547  0.00  0.00    +0.150 HD
BRANCH  34  36
ATOM     36  CA  ILE A   6      28.432   6.499  16.987  0.00  0.00    +0.137 C 
BRANCH  36  37
ATOM     37  CB  ILE A   6      27.116   6.483  16.203  0.00  0.00    +0.026 C 
ATOM     38  CG2 ILE A   6      26.251   5.292  16.625  0.00  0.00    +0.002 C 
BRANCH  37  39
ATOM     39  CG1 ILE A   6      26.361   7.798  16.432  0.00  0.00    +0.002 C 
ATOM     40  CD1 ILE A   6      25.141   7.995  15.516  0.00  0.00    +0.000 C 
ENDBRANCH  37  39
ENDBRANCH  36  37
BRANCH  36  41
ATOM     41  C   ILE A   6      29.089   5.120  16.962  0.00  0.00    +0.227 C 
ATOM     42  O   ILE A   6      29.065   4.410  17.964  0.00  0.00    -0.286 OA
ENDBRANCH  36  41
ENDBRANCH  34  36
ENDBRANCH  31  32
BRANCH  31  43
ATOM     43  CB  SER A   5      30.992  10.281  16.826  0.00  0.00    +0.166 C 
BRANCH  43  44
ATOM     44  OG  SER A   5      29.644  10.565  16.494  0.00  0.00    -0.380 OA
ATOM     45  H   SER A   5      29.517  10.460  15.518  0.00  0.00    +0.211 HD
ENDBRANCH  43  44
ENDBRANCH  31  43
ENDBRANCH  29  31
ENDBRANCH  25  27
ENDBRANCH  23  25
ENDBRANCH   1  21
BRANCH   1  46
ATOM     46  CB  HIS A   3      28.033   9.942  12.880  0.00  0.00    +0.076 C 
BRANCH  46  47
ATOM     47  CG  HIS A   3      29.157  10.903  12.696  0.00  0.00    +0.082 A 
ATOM     48  ND1 HIS A   3      30.056  11.200  13.697  0.00  0.00    -0.227 NA
ATOM     49  CE1 HIS A   3      30.947  12.060  13.241  0.00  0.00    +0.199 A 
ATOM     50  NE2 HIS A   3      30.667  12.321  11.977  0.00  0.00    -0.221 NA
ATOM     51  CD2 HIS A   3      29.558  11.600  11.609  0.00  0.00    +0.115 A 
ENDBRANCH  46  47
ENDBRANCH   1  46
TORSDOF 22
REMARK  Name = ../refined-set-2016/2w8w/2w8w_pocket.pdb
REMARK  239 active torsions:
REMARK  status: ('A' for Active; 'I' for Inactive)
REMARK    1  A    between atoms: _1  and  _3
REMARK    2  A    between atoms: _3  and  _4
REMARK    3  A    between atoms: _6  and  _8
REMARK    4  A    between atoms: _8  and  _9
REMARK    5  A    between atoms: _8  and  _11
REMARK    6  A    between atoms: _11  and  _12
REMARK    7  A    between atoms: _17  and  _18
REMARK    8  A    between atoms: _20  and  _22
REMARK    9  A    between atoms: _22  and  _23
REMARK   10  A    between atoms: _22  and  _25
REMARK   11  A    between atoms: _25  and  _26
REMARK   12  A    between atoms: _31  and  _32
REMARK   13  A    between atoms: _34  and  _36
REMARK   14  A    between atoms: _36  and  _37
REMARK   15  A    between atoms: _36  and  _39
REMARK   16  A    between atoms: _39  and  _40
REMARK   17  A    between atoms: _42  and  _44
REMARK   18  A    between atoms: _44  and  _45
REMARK   19  A    between atoms: _44  and  _47
REMARK   20  A    between atoms: _47  and  _48
REMARK   21  A    between atoms: _51  and  _53
REMARK   22  A    between atoms: _53  and  _54
REMARK   23  A    between atoms: _56  and  _58
REMARK   24  A    between atoms: _58  and  _59
REMARK   25  A    between atoms: _58  and  _61
REMARK   26  A    between atoms: _61  and  _62
REMARK   27  A    between atoms: _67  and  _68
REMARK   28  A    between atoms: _70  and  _72
REMARK   29  A    between atoms: _72  and  _73
REMARK   30  A    between atoms: _72  and  _75
REMARK   31  A    between atoms: _75  and  _76
REMARK   32  A    between atoms: _76  and  _77
REMARK   33  A    between atoms: _79  and  _81
REMARK   34  A    between atoms: _81  and  _82
REMARK   35  A    between atoms: _85  and  _87
REMARK   36  A    between atoms: _87  and  _88
REMARK   37  A    between atoms: _87  and  _90
REMARK   38  A    between atoms: _90  and  _91
REMARK   39  A    between atoms: _96  and  _98
REMARK   40  A    between atoms: _98  and  _99
REMARK   41  A    between atoms: _98  and  _101
REMARK   42  A    between atoms: _101  and  _102
REMARK   43  A    between atoms: _105  and  _107
REMARK   44  A    between atoms: _107  and  _108
REMARK   45  A    between atoms: _107  and  _110
REMARK   46  A    between atoms: _110  and  _111
REMARK   47  A    between atoms: _114  and  _116
REMARK   48  A    between atoms: _116  and  _117
REMARK   49  A    between atoms: _116  and  _119
REMARK   50  A    between atoms: _119  and  _120
REMARK   51  A    between atoms: _122  and  _124
REMARK   52  A    between atoms: _124  and  _125
REMARK   53  A    between atoms: _124  and  _127
REMARK   54  A    between atoms: _127  and  _128
REMARK   55  A    between atoms: _133  and  _135
REMARK   56  A    between atoms: _135  and  _136
REMARK   57  A    between atoms: _139  and  _141
REMARK   58  A    between atoms: _141  and  _142
REMARK   59  A    between atoms: _141  and  _144
REMARK   60  A    between atoms: _144  and  _145
REMARK   61  A    between atoms: _147  and  _149
REMARK   62  A    between atoms: _149  and  _150
REMARK   63  A    between atoms: _149  and  _152
REMARK   64  A    between atoms: _152  and  _153
REMARK   65  A    between atoms: _156  and  _158
REMARK   66  A    between atoms: _158  and  _159
REMARK   67  A    between atoms: _158  and  _161
REMARK   68  A    between atoms: _161  and  _162
REMARK   69  A    between atoms: _165  and  _167
REMARK   70  A    between atoms: _167  and  _168
REMARK   71  A    between atoms: _167  and  _170
REMARK   72  A    between atoms: _170  and  _171
REMARK   73  A    between atoms: _171  and  _172
REMARK   74  A    between atoms: _175  and  _177
REMARK   75  A    between atoms: _177  and  _178
REMARK   76  A    between atoms: _180  and  _182
REMARK   77  A    between atoms: _182  and  _183
REMARK   78  A    between atoms: _182  and  _185
REMARK   79  A    between atoms: _188  and  _190
REMARK   80  A    between atoms: _190  and  _191
REMARK   81  A    between atoms: _190  and  _193
REMARK   82  A    between atoms: _193  and  _194
REMARK   83  A    between atoms: _199  and  _200
REMARK   84  A    between atoms: _202  and  _204
REMARK   85  A    between atoms: _204  and  _205
REMARK   86  A    between atoms: _204  and  _207
REMARK   87  A    between atoms: _207  and  _208
REMARK   88  A    between atoms: _210  and  _212
REMARK   89  A    between atoms: _212  and  _213
REMARK   90  A    between atoms: _212  and  _215
REMARK   91  A    between atoms: _215  and  _216
REMARK   92  A    between atoms: _216  and  _217
REMARK   93  A    between atoms: _219  and  _221
REMARK   94  A    between atoms: _221  and  _222
REMARK   95  A    between atoms: _221  and  _224
REMARK   96  A    between atoms: _224  and  _225
REMARK   97  A    between atoms: _228  and  _230
REMARK   98  A    between atoms: _230  and  _231
REMARK   99  A    between atoms: _230  and  _233
REMARK  100  A    between atoms: _233  and  _234
REMARK  101  A    between atoms: _234  and  _235
REMARK  102  A    between atoms: _238  and  _240
REMARK  103  A    between atoms: _240  and  _241
REMARK  104  A    between atoms: _244  and  _246
REMARK  105  A    between atoms: _246  and  _247
REMARK  106  A    between atoms: _246  and  _249
REMARK  107  A    between atoms: _249  and  _250
REMARK  108  A    between atoms: _255  and  _257
REMARK  109  A    between atoms: _257  and  _258
REMARK  110  A    between atoms: _257  and  _260
REMARK  111  A    between atoms: _260  and  _261
REMARK  112  A    between atoms: _263  and  _265
REMARK  113  A    between atoms: _265  and  _266
REMARK  114  A    between atoms: _265  and  _268
REMARK  115  A    between atoms: _271  and  _273
REMARK  116  A    between atoms: _273  and  _274
REMARK  117  A    between atoms: _276  and  _278
REMARK  118  A    between atoms: _278  and  _279
REMARK  119  A    between atoms: _278  and  _281
REMARK  120  A    between atoms: _281  and  _282
REMARK  121  A    between atoms: _285  and  _287
REMARK  122  A    between atoms: _287  and  _288
REMARK  123  A    between atoms: _287  and  _290
REMARK  124  A    between atoms: _290  and  _291
REMARK  125  A    between atoms: _297  and  _299
REMARK  126  A    between atoms: _299  and  _300
REMARK  127  A    between atoms: _299  and  _302
REMARK  128  A    between atoms: _302  and  _303
REMARK  129  A    between atoms: _305  and  _307
REMARK  130  A    between atoms: _307  and  _308
REMARK  131  A    between atoms: _307  and  _310
REMARK  132  A    between atoms: _310  and  _311
REMARK  133  A    between atoms: _311  and  _312
REMARK  134  A    between atoms: _312  and  _313
REMARK  135  A    between atoms: _313  and  _314
REMARK  136  A    between atoms: _318  and  _320
REMARK  137  A    between atoms: _320  and  _321
REMARK  138  A    between atoms: _320  and  _323
REMARK  139  A    between atoms: _323  and  _324
REMARK  140  A    between atoms: _327  and  _329
REMARK  141  A    between atoms: _329  and  _330
REMARK  142  A    between atoms: _329  and  _332
REMARK  143  A    between atoms: _335  and  _337
REMARK  144  A    between atoms: _337  and  _338
REMARK  145  A    between atoms: _340  and  _342
REMARK  146  A    between atoms: _342  and  _343
REMARK  147  A    between atoms: _345  and  _347
REMARK  148  A    between atoms: _347  and  _348
REMARK  149  A    between atoms: _347  and  _350
REMARK  150  A    between atoms: _350  and  _351
REMARK  151  A    between atoms: _357  and  _359
REMARK  152  A    between atoms: _359  and  _360
REMARK  153  A    between atoms: _359  and  _362
REMARK  154  A    between atoms: _362  and  _363
REMARK  155  A    between atoms: _366  and  _368
REMARK  156  A    between atoms: _368  and  _369
REMARK  157  A    between atoms: _368  and  _371
REMARK  158  A    between atoms: _371  and  _372
REMARK  159  A    between atoms: _377  and  _379
REMARK  160  A    between atoms: _379  and  _380
REMARK  161  A    between atoms: _379  and  _382
REMARK  162  A    between atoms: _382  and  _383
REMARK  163  A    between atoms: _383  and  _384
REMARK  164  A    between atoms: _384  and  _385
REMARK  165  A    between atoms: _394  and  _396
REMARK  166  A    between atoms: _396  and  _397
REMARK  167  A    between atoms: _396  and  _399
REMARK  168  A    between atoms: _399  and  _400
REMARK  169  A    between atoms: _403  and  _405
REMARK  170  A    between atoms: _405  and  _406
REMARK  171  A    between atoms: _405  and  _408
REMARK  172  A    between atoms: _408  and  _409
REMARK  173  A    between atoms: _414  and  _415
REMARK  174  A    between atoms: _417  and  _419
REMARK  175  A    between atoms: _419  and  _420
REMARK  176  A    between atoms: _422  and  _424
REMARK  177  A    between atoms: _424  and  _425
REMARK  178  A    between atoms: _424  and  _427
REMARK  179  A    between atoms: _427  and  _428
REMARK  180  A    between atoms: _430  and  _432
REMARK  181  A    between atoms: _432  and  _433
REMARK  182  A    between atoms: _432  and  _435
REMARK  183  A    between atoms: _435  and  _436
REMARK  184  A    between atoms: _436  and  _437
REMARK  185  A    between atoms: _437  and  _438
REMARK  186  A    between atoms: _447  and  _449
REMARK  187  A    between atoms: _449  and  _450
REMARK  188  A    between atoms: _449  and  _452
REMARK  189  A    between atoms: _452  and  _453
REMARK  190  A    between atoms: _453  and  _454
REMARK  191  A    between atoms: _456  and  _458
REMARK  192  A    between atoms: _458  and  _459
REMARK  193  A    between atoms: _458  and  _461
REMARK  194  A    between atoms: _461  and  _462
REMARK  195  A    between atoms: _465  and  _467
REMARK  196  A    between atoms: _467  and  _468
REMARK  197  A    between atoms: _467  and  _470
REMARK  198  A    between atoms: _470  and  _471
REMARK  199  A    between atoms: _476  and  _478
REMARK  200  A    between atoms: _478  and  _479
REMARK  201  A    between atoms: _481  and  _483
REMARK  202  A    between atoms: _483  and  _484
REMARK  203  A    between atoms: _483  and  _486
REMARK  204  A    between atoms: _486  and  _487
REMARK  205  A    between atoms: _489  and  _491
REMARK  206  A    between atoms: _491  and  _492
REMARK  207  A    between atoms: _491  and  _494
REMARK  208  A    between atoms: _494  and  _495
REMARK  209  A    between atoms: _495  and  _496
REMARK  210  A    between atoms: _498  and  _500
REMARK  211  A    between atoms: _500  and  _501
REMARK  212  A    between atoms: _500  and  _503
REMARK  213  A    between atoms: _503  and  _504
REMARK  214  A    between atoms: _504  and  _505
REMARK  215  A    between atoms: _505  and  _506
REMARK  216  A    between atoms: _516  and  _517
REMARK  217  A    between atoms: _522  and  _524
REMARK  218  A    between atoms: _524  and  _525
REMARK  219  A    between atoms: _524  and  _527
REMARK  220  A    between atoms: _527  and  _528
REMARK  221  A    between atoms: _533  and  _534
REMARK  222  A    between atoms: _536  and  _538
REMARK  223  A    between atoms: _538  and  _539
REMARK  224  A    between atoms: _538  and  _541
REMARK  225  A    between atoms: _541  and  _542
REMARK  226  A    between atoms: _545  and  _547
REMARK  227  A    between atoms: _547  and  _548
REMARK  228  A    between atoms: _547  and  _550
REMARK  229  A    between atoms: _550  and  _551
REMARK  230  A    between atoms: _557  and  _559
REMARK  231  A    between atoms: _559  and  _560
REMARK  232  A    between atoms: _559  and  _562
REMARK  233  A    between atoms: _562  and  _563
REMARK  234  A    between atoms: _566  and  _568
REMARK  235  A    between atoms: _568  and  _569
REMARK  236  A    between atoms: _572  and  _574
REMARK  237  A    between atoms: _574  and  _575
REMARK  238  A    between atoms: _574  and  _577
REMARK  239  A    between atoms: _577  and  _578
REMARK                            x       y       z     vdW  Elec       q    Type
REMARK                         _______ _______ _______ _____ _____    ______ ____
ROOT
ATOM      1  C   VAL A   4      20.803  13.052   8.821  0.00  0.00    +0.241 C 
ATOM      2  O   VAL A   4      21.694  13.274   9.648  0.00  0.00    -0.273 OA
ATOM      3  N   TYR A   5      20.940  12.201   7.812  0.00  0.00    -0.297 N 
ATOM      4  H   TYR A   5      20.133  12.036   7.177  0.00  0.00    +0.150 HD
ENDROOT
BRANCH   3   5
ATOM      5  CA  TYR A   5      22.189  11.491   7.568  0.00  0.00    +0.153 C 
BRANCH   5   6
ATOM      6  C   TYR A   5      23.092  12.274   6.626  0.00  0.00    +0.241 C 
ATOM      7  N   SER A   6      24.281  12.590   7.132  0.00  0.00    -0.295 N 
ATOM      8  H   SER A   6      24.576  12.136   8.020  0.00  0.00    +0.150 HD
ATOM      9  O   TYR A   5      22.728  12.558   5.478  0.00  0.00    -0.273 OA
BRANCH   7  10
ATOM     10  CA  SER A   6      25.186  13.536   6.508  0.00  0.00    +0.178 C 
BRANCH  10  11
ATOM     11  C   SER A   6      25.712  13.123   5.137  0.00  0.00    +0.243 C 
ATOM     12  N   MET A   7      25.774  11.827   4.836  0.00  0.00    -0.298 N 
ATOM     13  H   MET A   7      25.393  11.120   5.497  0.00  0.00    +0.150 HD
ATOM     14  O   SER A   6      26.060  13.990   4.349  0.00  0.00    -0.273 OA
BRANCH  12  15
ATOM     15  CA  MET A   7      26.380  11.399   3.573  0.00  0.00    +0.138 C 
BRANCH  15  16
ATOM     16  C   MET A   7      25.597  11.928   2.372  0.00  0.00    +0.227 C 
ATOM     17  O   MET A   7      26.150  12.642   1.532  0.00  0.00    -0.286 OA
ENDBRANCH  15  16
BRANCH  15  18
ATOM     18  CB  MET A   7      26.526   9.874   3.472  0.00  0.00    +0.039 C 
BRANCH  18  19
ATOM     19  CG  MET A   7      27.527   9.457   2.388  0.00  0.00    +0.060 C 
BRANCH  19  20
ATOM     20  SD  MET A   7      27.670   7.673   2.122  0.00  0.00    -0.139 S 
ATOM     21  CE  MET A   7      26.317   7.349   0.979  0.00  0.00    +0.069 C 
ENDBRANCH  19  20
ENDBRANCH  18  19
ENDBRANCH  15  18
ENDBRANCH  12  15
ENDBRANCH  10  11
BRANCH  10  22
ATOM     22  CB  SER A   6      26.370  13.830   7.443  0.00  0.00    +0.166 C 
BRANCH  22  23
ATOM     23  OG  SER A   6      27.202  12.688   7.608  0.00  0.00    -0.380 OA
ATOM     24  H   SER A   6      26.672  11.948   7.997  0.00  0.00    +0.211 HD
ENDBRANCH  22  23
ENDBRANCH  10  22
ENDBRANCH   7  10
ENDBRANCH   5   6
BRANCH   5  25
ATOM     25  CB  TYR A   5      21.911  10.097   7.030  0.00  0.00    +0.055 C 
BRANCH  25  26
ATOM     26  CG  TYR A   5      21.418   9.166   8.110  0.00  0.00    -0.020 A 
ATOM     27  CD2 TYR A   5      22.310   8.543   8.989  0.00  0.00    -0.001 A 
ATOM     28  CE2 TYR A   5      21.854   7.683   9.987  0.00  0.00    +0.036 A 
ATOM     29  CZ  TYR A   5      20.489   7.454  10.114  0.00  0.00    +0.134 A 
ATOM     30  CE1 TYR A   5      19.597   8.071   9.259  0.00  0.00    +0.036 A 
ATOM     31  CD1 TYR A   5      20.060   8.922   8.270  0.00  0.00    -0.001 A 
BRANCH  29  32
ATOM     32  OH  TYR A   5      19.997   6.623  11.100  0.00  0.00    -0.506 OA
ATOM     33  HH  TYR A   5      19.494   5.879  10.683  0.00  0.00    +0.292 HD
ENDBRANCH  29  32
ENDBRANCH  25  26
ENDBRANCH   5  25
ENDBRANCH   3   5
BRANCH   1  34
ATOM     34  CA  VAL A   4      19.464  13.772   8.922  0.00  0.00    +0.149 C 
BRANCH  34  36
ATOM     35  C   GLY A   3      17.824  12.848  10.488  0.00  0.00    +0.243 C 
ATOM     36  N   VAL A   4      18.916  13.579  10.258  0.00  0.00    -0.297 N 
ATOM     37  H   VAL A   4      19.395  14.029  11.064  0.00  0.00    +0.150 HD
ATOM     38  O   GLY A   3      17.117  12.387   9.596  0.00  0.00    -0.273 OA
BRANCH  35  39
ATOM     39  CA  GLY A   3      17.486  12.608  11.943  0.00  0.00    +0.176 C 
BRANCH  39  41
ATOM     40  C   GLU A   2      18.911  10.682  12.371  0.00  0.00    +0.241 C 
ATOM     41  N   GLY A   3      18.608  11.952  12.618  0.00  0.00    -0.295 N 
ATOM     42  H   GLY A   3      19.177  12.489  13.302  0.00  0.00    +0.150 HD
ATOM     43  O   GLU A   2      18.241   9.962  11.626  0.00  0.00    -0.273 OA
BRANCH  40  44
ATOM     44  CA  GLU A   2      20.137  10.126  13.081  0.00  0.00    +0.149 C 
BRANCH  44  47
ATOM     45  C   LEU A   1      19.806   8.284  14.620  0.00  0.00    +0.238 C 
ATOM     46  O   LEU A   1      20.191   8.943  15.581  0.00  0.00    -0.274 OA
ATOM     47  N   GLU A   2      19.882   8.723  13.374  0.00  0.00    -0.297 N 
ATOM     48  H   GLU A   2      19.757   8.053  12.589  0.00  0.00    +0.150 HD
BRANCH  45  49
ATOM     49  CA  LEU A   1      19.228   6.889  14.816  0.00  0.00    +0.145 C 
BRANCH  49  50
ATOM     50  N   LEU A   1      19.640   6.372  16.114  0.00  0.00    -0.238 NA
ATOM     51  H   LEU A   1      19.469   6.958  16.956  0.00  0.00    +0.142 HD
ENDBRANCH  49  50
BRANCH  49  52
ATOM     52  CB  LEU A   1      17.695   6.975  14.741  0.00  0.00    +0.026 C 
BRANCH  52  53
ATOM     53  CG  LEU A   1      16.929   5.715  15.147  0.00  0.00    +0.002 C 
ATOM     54  CD2 LEU A   1      15.404   5.922  15.051  0.00  0.00    +0.000 C 
ATOM     55  CD1 LEU A   1      17.370   4.563  14.277  0.00  0.00    +0.000 C 
ENDBRANCH  52  53
ENDBRANCH  49  52
ENDBRANCH  45  49
ENDBRANCH  44  47
BRANCH  44  56
ATOM     56  CB  GLU A   2      21.378  10.295  12.205  0.00  0.00    +0.041 C 
BRANCH  56  57
ATOM     57  CG  GLU A   2      22.645   9.747  12.815  0.00  0.00    +0.116 C 
BRANCH  57  58
ATOM     58  CD  GLU A   2      23.862   9.983  11.950  0.00  0.00    +0.365 C 
ATOM     59  OE2 GLU A   2      24.715   9.088  11.900  0.00  0.00    -0.246 OA
ATOM     60  OE1 GLU A   2      23.964  11.053  11.316  0.00  0.00    -0.246 OA
ENDBRANCH  57  58
ENDBRANCH  56  57
ENDBRANCH  44  56
ENDBRANCH  40  44
ENDBRANCH  39  41
ENDBRANCH  35  39
ENDBRANCH  34  36
BRANCH  34  61
ATOM     61  CB  VAL A   4      19.720  15.249   8.629  0.00  0.00    +0.027 C 
ATOM     62  CG2 VAL A   4      18.448  16.053   8.773  0.00  0.00    +0.002 C 
ATOM     63  CG1 VAL A   4      20.337  15.416   7.236  0.00  0.00    +0.002 C 
ENDBRANCH  34  61
ENDBRANCH   1  34
TORSDOF 28
REMARK  Name = ../refined-set-2016/2w8w/2w8w_pocket.pdb
REMARK  239 active torsions:
REMARK  status: ('A' for Active; 'I' for Inactive)
REMARK    1  A    between atoms: _1  and  _3
REMARK    2  A    between atoms: _3  and  _4
REMARK    3  A    between atoms: _6  and  _8
REMARK    4  A    between atoms: _8  and  _9
REMARK    5  A    between atoms: _8  and  _11
REMARK    6  A    between atoms: _11  and  _12
REMARK    7  A    between atoms: _17  and  _18
REMARK    8  A    between atoms: _20  and  _22
REMARK    9  A    between atoms: _22  and  _23
REMARK   10  A    between atoms: _22  and  _25
REMARK   11  A    between atoms: _25  and  _26
REMARK   12  A    between atoms: _31  and  _32
REMARK   13  A    between atoms: _34  and  _36
REMARK   14  A    between atoms: _36  and  _37
REMARK   15  A    between atoms: _36  and  _39
REMARK   16  A    between atoms: _39  and  _40
REMARK   17  A    between atoms: _42  and  _44
REMARK   18  A    between atoms: _44  and  _45
REMARK   19  A    between atoms: _44  and  _47
REMARK   20  A    between atoms: _47  and  _48
REMARK   21  A    between atoms: _51  and  _53
REMARK   22  A    between atoms: _53  and  _54
REMARK   23  A    between atoms: _56  and  _58
REMARK   24  A    between atoms: _58  and  _59
REMARK   25  A    between atoms: _58  and  _61
REMARK   26  A    between atoms: _61  and  _62
REMARK   27  A    between atoms: _67  and  _68
REMARK   28  A    between atoms: _70  and  _72
REMARK   29  A    between atoms: _72  and  _73
REMARK   30  A    between atoms: _72  and  _75
REMARK   31  A    between atoms: _75  and  _76
REMARK   32  A    between atoms: _76  and  _77
REMARK   33  A    between atoms: _79  and  _81
REMARK   34  A    between atoms: _81  and  _82
REMARK   35  A    between atoms: _85  and  _87
REMARK   36  A    between atoms: _87  and  _88
REMARK   37  A    between atoms: _87  and  _90
REMARK   38  A    between atoms: _90  and  _91
REMARK   39  A    between atoms: _96  and  _98
REMARK   40  A    between atoms: _98  and  _99
REMARK   41  A    between atoms: _98  and  _101
REMARK   42  A    between atoms: _101  and  _102
REMARK   43  A    between atoms: _105  and  _107
REMARK   44  A    between atoms: _107  and  _108
REMARK   45  A    between atoms: _107  and  _110
REMARK   46  A    between atoms: _110  and  _111
REMARK   47  A    between atoms: _114  and  _116
REMARK   48  A    between atoms: _116  and  _117
REMARK   49  A    between atoms: _116  and  _119
REMARK   50  A    between atoms: _119  and  _120
REMARK   51  A    between atoms: _122  and  _124
REMARK   52  A    between atoms: _124  and  _125
REMARK   53  A    between atoms: _124  and  _127
REMARK   54  A    between atoms: _127  and  _128
REMARK   55  A    between atoms: _133  and  _135
REMARK   56  A    between atoms: _135  and  _136
REMARK   57  A    between atoms: _139  and  _141
REMARK   58  A    between atoms: _141  and  _142
REMARK   59  A    between atoms: _141  and  _144
REMARK   60  A    between atoms: _144  and  _145
REMARK   61  A    between atoms: _147  and  _149
REMARK   62  A    between atoms: _149  and  _150
REMARK   63  A    between atoms: _149  and  _152
REMARK   64  A    between atoms: _152  and  _153
REMARK   65  A    between atoms: _156  and  _158
REMARK   66  A    between atoms: _158  and  _159
REMARK   67  A    between atoms: _158  and  _161
REMARK   68  A    between atoms: _161  and  _162
REMARK   69  A    between atoms: _165  and  _167
REMARK   70  A    between atoms: _167  and  _168
REMARK   71  A    between atoms: _167  and  _170
REMARK   72  A    between atoms: _170  and  _171
REMARK   73  A    between atoms: _171  and  _172
REMARK   74  A    between atoms: _175  and  _177
REMARK   75  A    between atoms: _177  and  _178
REMARK   76  A    between atoms: _180  and  _182
REMARK   77  A    between atoms: _182  and  _183
REMARK   78  A    between atoms: _182  and  _185
REMARK   79  A    between atoms: _188  and  _190
REMARK   80  A    between atoms: _190  and  _191
REMARK   81  A    between atoms: _190  and  _193
REMARK   82  A    between atoms: _193  and  _194
REMARK   83  A    between atoms: _199  and  _200
REMARK   84  A    between atoms: _202  and  _204
REMARK   85  A    between atoms: _204  and  _205
REMARK   86  A    between atoms: _204  and  _207
REMARK   87  A    between atoms: _207  and  _208
REMARK   88  A    between atoms: _210  and  _212
REMARK   89  A    between atoms: _212  and  _213
REMARK   90  A    between atoms: _212  and  _215
REMARK   91  A    between atoms: _215  and  _216
REMARK   92  A    between atoms: _216  and  _217
REMARK   93  A    between atoms: _219  and  _221
REMARK   94  A    between atoms: _221  and  _222
REMARK   95  A    between atoms: _221  and  _224
REMARK   96  A    between atoms: _224  and  _225
REMARK   97  A    between atoms: _228  and  _230
REMARK   98  A    between atoms: _230  and  _231
REMARK   99  A    between atoms: _230  and  _233
REMARK  100  A    between atoms: _233  and  _234
REMARK  101  A    between atoms: _234  and  _235
REMARK  102  A    between atoms: _238  and  _240
REMARK  103  A    between atoms: _240  and  _241
REMARK  104  A    between atoms: _244  and  _246
REMARK  105  A    between atoms: _246  and  _247
REMARK  106  A    between atoms: _246  and  _249
REMARK  107  A    between atoms: _249  and  _250
REMARK  108  A    between atoms: _255  and  _257
REMARK  109  A    between atoms: _257  and  _258
REMARK  110  A    between atoms: _257  and  _260
REMARK  111  A    between atoms: _260  and  _261
REMARK  112  A    between atoms: _263  and  _265
REMARK  113  A    between atoms: _265  and  _266
REMARK  114  A    between atoms: _265  and  _268
REMARK  115  A    between atoms: _271  and  _273
REMARK  116  A    between atoms: _273  and  _274
REMARK  117  A    between atoms: _276  and  _278
REMARK  118  A    between atoms: _278  and  _279
REMARK  119  A    between atoms: _278  and  _281
REMARK  120  A    between atoms: _281  and  _282
REMARK  121  A    between atoms: _285  and  _287
REMARK  122  A    between atoms: _287  and  _288
REMARK  123  A    between atoms: _287  and  _290
REMARK  124  A    between atoms: _290  and  _291
REMARK  125  A    between atoms: _297  and  _299
REMARK  126  A    between atoms: _299  and  _300
REMARK  127  A    between atoms: _299  and  _302
REMARK  128  A    between atoms: _302  and  _303
REMARK  129  A    between atoms: _305  and  _307
REMARK  130  A    between atoms: _307  and  _308
REMARK  131  A    between atoms: _307  and  _310
REMARK  132  A    between atoms: _310  and  _311
REMARK  133  A    between atoms: _311  and  _312
REMARK  134  A    between atoms: _312  and  _313
REMARK  135  A    between atoms: _313  and  _314
REMARK  136  A    between atoms: _318  and  _320
REMARK  137  A    between atoms: _320  and  _321
REMARK  138  A    between atoms: _320  and  _323
REMARK  139  A    between atoms: _323  and  _324
REMARK  140  A    between atoms: _327  and  _329
REMARK  141  A    between atoms: _329  and  _330
REMARK  142  A    between atoms: _329  and  _332
REMARK  143  A    between atoms: _335  and  _337
REMARK  144  A    between atoms: _337  and  _338
REMARK  145  A    between atoms: _340  and  _342
REMARK  146  A    between atoms: _342  and  _343
REMARK  147  A    between atoms: _345  and  _347
REMARK  148  A    between atoms: _347  and  _348
REMARK  149  A    between atoms: _347  and  _350
REMARK  150  A    between atoms: _350  and  _351
REMARK  151  A    between atoms: _357  and  _359
REMARK  152  A    between atoms: _359  and  _360
REMARK  153  A    between atoms: _359  and  _362
REMARK  154  A    between atoms: _362  and  _363
REMARK  155  A    between atoms: _366  and  _368
REMARK  156  A    between atoms: _368  and  _369
REMARK  157  A    between atoms: _368  and  _371
REMARK  158  A    between atoms: _371  and  _372
REMARK  159  A    between atoms: _377  and  _379
REMARK  160  A    between atoms: _379  and  _380
REMARK  161  A    between atoms: _379  and  _382
REMARK  162  A    between atoms: _382  and  _383
REMARK  163  A    between atoms: _383  and  _384
REMARK  164  A    between atoms: _384  and  _385
REMARK  165  A    between atoms: _394  and  _396
REMARK  166  A    between atoms: _396  and  _397
REMARK  167  A    between atoms: _396  and  _399
REMARK  168  A    between atoms: _399  and  _400
REMARK  169  A    between atoms: _403  and  _405
REMARK  170  A    between atoms: _405  and  _406
REMARK  171  A    between atoms: _405  and  _408
REMARK  172  A    between atoms: _408  and  _409
REMARK  173  A    between atoms: _414  and  _415
REMARK  174  A    between atoms: _417  and  _419
REMARK  175  A    between atoms: _419  and  _420
REMARK  176  A    between atoms: _422  and  _424
REMARK  177  A    between atoms: _424  and  _425
REMARK  178  A    between atoms: _424  and  _427
REMARK  179  A    between atoms: _427  and  _428
REMARK  180  A    between atoms: _430  and  _432
REMARK  181  A    between atoms: _432  and  _433
REMARK  182  A    between atoms: _432  and  _435
REMARK  183  A    between atoms: _435  and  _436
REMARK  184  A    between atoms: _436  and  _437
REMARK  185  A    between atoms: _437  and  _438
REMARK  186  A    between atoms: _447  and  _449
REMARK  187  A    between atoms: _449  and  _450
REMARK  188  A    between atoms: _449  and  _452
REMARK  189  A    between atoms: _452  and  _453
REMARK  190  A    between atoms: _453  and  _454
REMARK  191  A    between atoms: _456  and  _458
REMARK  192  A    between atoms: _458  and  _459
REMARK  193  A    between atoms: _458  and  _461
REMARK  194  A    between atoms: _461  and  _462
REMARK  195  A    between atoms: _465  and  _467
REMARK  196  A    between atoms: _467  and  _468
REMARK  197  A    between atoms: _467  and  _470
REMARK  198  A    between atoms: _470  and  _471
REMARK  199  A    between atoms: _476  and  _478
REMARK  200  A    between atoms: _478  and  _479
REMARK  201  A    between atoms: _481  and  _483
REMARK  202  A    between atoms: _483  and  _484
REMARK  203  A    between atoms: _483  and  _486
REMARK  204  A    between atoms: _486  and  _487
REMARK  205  A    between atoms: _489  and  _491
REMARK  206  A    between atoms: _491  and  _492
REMARK  207  A    between atoms: _491  and  _494
REMARK  208  A    between atoms: _494  and  _495
REMARK  209  A    between atoms: _495  and  _496
REMARK  210  A    between atoms: _498  and  _500
REMARK  211  A    between atoms: _500  and  _501
REMARK  212  A    between atoms: _500  and  _503
REMARK  213  A    between atoms: _503  and  _504
REMARK  214  A    between atoms: _504  and  _505
REMARK  215  A    between atoms: _505  and  _506
REMARK  216  A    between atoms: _516  and  _517
REMARK  217  A    between atoms: _522  and  _524
REMARK  218  A    between atoms: _524  and  _525
REMARK  219  A    between atoms: _524  and  _527
REMARK  220  A    between atoms: _527  and  _528
REMARK  221  A    between atoms: _533  and  _534
REMARK  222  A    between atoms: _536  and  _538
REMARK  223  A    between atoms: _538  and  _539
REMARK  224  A    between atoms: _538  and  _541
REMARK  225  A    between atoms: _541  and  _542
REMARK  226  A    between atoms: _545  and  _547
REMARK  227  A    between atoms: _547  and  _548
REMARK  228  A    between atoms: _547  and  _550
REMARK  229  A    between atoms: _550  and  _551
REMARK  230  A    between atoms: _557  and  _559
REMARK  231  A    between atoms: _559  and  _560
REMARK  232  A    between atoms: _559  and  _562
REMARK  233  A    between atoms: _562  and  _563
REMARK  234  A    between atoms: _566  and  _568
REMARK  235  A    between atoms: _568  and  _569
REMARK  236  A    between atoms: _572  and  _574
REMARK  237  A    between atoms: _574  and  _575
REMARK  238  A    between atoms: _574  and  _577
REMARK  239  A    between atoms: _577  and  _578
REMARK                            x       y       z     vdW  Elec       q    Type
REMARK                         _______ _______ _______ _____ _____    ______ ____
ROOT
ATOM      1  CA  ALA A   3      23.384  17.375  14.576  0.00  0.00    +0.149 C 
ATOM      2  CB  ALA A   3      24.717  16.626  14.415  0.00  0.00    +0.031 C 
ENDROOT
BRANCH   1   3
ATOM      3  C   ALA A   3      23.078  18.154  13.300  0.00  0.00    +0.241 C 
ATOM      4  O   ALA A   3      23.472  19.311  13.149  0.00  0.00    -0.273 OA
ATOM      5  N   HIS A   4      22.386  17.521  12.364  0.00  0.00    -0.297 N 
ATOM      6  H   HIS A   4      21.960  16.597  12.577  0.00  0.00    +0.150 HD
BRANCH   5   7
ATOM      7  CA  HIS A   4      22.214  18.104  11.038  0.00  0.00    +0.155 C 
BRANCH   7   8
ATOM      8  C   HIS A   4      20.810  18.667  10.799  0.00  0.00    +0.241 C 
ATOM      9  N   SER A   5      20.108  18.953  11.891  0.00  0.00    -0.296 N 
ATOM     10  H   SER A   5      20.542  18.786  12.821  0.00  0.00    +0.150 HD
ATOM     11  O   HIS A   4      20.390  18.867   9.660  0.00  0.00    -0.273 OA
BRANCH   9  12
ATOM     12  CA  SER A   5      18.752  19.492  11.837  0.00  0.00    +0.166 C 
BRANCH  12  13
ATOM     13  C   SER A   5      18.507  20.646  12.808  0.00  0.00    +0.229 C 
ATOM     14  O   SER A   5      17.483  21.335  12.720  0.00  0.00    -0.286 OA
ENDBRANCH  12  13
BRANCH  12  15
ATOM     15  CB  SER A   5      17.764  18.369  12.154  0.00  0.00    +0.165 C 
BRANCH  15  16
ATOM     16  OG  SER A   5      17.988  17.887  13.458  0.00  0.00    -0.380 OA
ATOM     17  H   SER A   5      17.345  17.161  13.655  0.00  0.00    +0.211 HD
ENDBRANCH  15  16
ENDBRANCH  12  15
ENDBRANCH   9  12
ENDBRANCH   7   8
BRANCH   7  18
ATOM     18  CB  HIS A   4      22.617  17.080   9.994  0.00  0.00    +0.076 C 
BRANCH  18  19
ATOM     19  CG  HIS A   4      24.093  16.844   9.935  0.00  0.00    +0.082 A 
ATOM     20  CD2 HIS A   4      24.856  15.833  10.413  0.00  0.00    +0.115 A 
ATOM     21  NE2 HIS A   4      26.161  16.120  10.089  0.00  0.00    -0.221 NA
ATOM     22  CE1 HIS A   4      26.197  17.267   9.433  0.00  0.00    +0.199 A 
ATOM     23  ND1 HIS A   4      24.963  17.729   9.333  0.00  0.00    -0.227 NA
ENDBRANCH  18  19
ENDBRANCH   7  18
ENDBRANCH   5   7
ENDBRANCH   1   3
BRANCH   1  26
ATOM     24  C   GLU A   2      21.085  16.831  15.239  0.00  0.00    +0.241 C 
ATOM     25  O   GLU A   2      20.751  18.017  15.291  0.00  0.00    -0.273 OA
ATOM     26  N   ALA A   3      22.323  16.436  14.942  0.00  0.00    -0.297 N 
ATOM     27  H   ALA A   3      22.544  15.420  14.972  0.00  0.00    +0.150 HD
BRANCH  24  28
ATOM     28  CA  GLU A   2      20.067  15.721  15.476  0.00  0.00    +0.149 C 
BRANCH  28  30
ATOM     29  C   ASP A   1      20.855  13.410  15.731  0.00  0.00    +0.239 C 
ATOM     30  N   GLU A   2      20.675  14.635  16.224  0.00  0.00    -0.297 N 
ATOM     31  H   GLU A   2      20.987  14.824  17.198  0.00  0.00    +0.150 HD
ATOM     32  O   ASP A   1      20.550  13.091  14.594  0.00  0.00    -0.274 OA
BRANCH  29  33
ATOM     33  CA  ASP A   1      21.459  12.387  16.688  0.00  0.00    +0.156 C 
BRANCH  33  34
ATOM     34  N   ASP A   1      20.449  11.382  16.937  0.00  0.00    -0.238 NA
ATOM     35  H   ASP A   1      20.382  10.573  16.286  0.00  0.00    +0.142 HD
ENDBRANCH  33  34
BRANCH  33  36
ATOM     36  CB  ASP A   1      22.703  11.714  16.090  0.00  0.00    +0.140 C 
BRANCH  36  37
ATOM     37  CG  ASP A   1      23.852  12.674  15.880  0.00  0.00    +0.367 C 
ATOM     38  OD2 ASP A   1      25.024  12.237  16.000  0.00  0.00    -0.246 OA
ATOM     39  OD1 ASP A   1      23.578  13.852  15.573  0.00  0.00    -0.246 OA
ENDBRANCH  36  37
ENDBRANCH  33  36
ENDBRANCH  29  33
ENDBRANCH  28  30
BRANCH  28  40
ATOM     40  CB  GLU A   2      18.833  16.251  16.222  0.00  0.00    +0.041 C 
BRANCH  40  41
ATOM     41  CG  GLU A   2      17.702  15.227  16.379  0.00  0.00    +0.116 C 
BRANCH  41  42
ATOM     42  CD  GLU A   2      16.868  15.023  15.118  0.00  0.00    +0.365 C 
ATOM     43  OE2 GLU A   2      15.821  14.335  15.199  0.00  0.00    -0.246 OA
ATOM     44  OE1 GLU A   2      17.238  15.545  14.044  0.00  0.00    -0.246 OA
ENDBRANCH  41  42
ENDBRANCH  40  41
ENDBRANCH  28  40
ENDBRANCH  24  28
ENDBRANCH   1  26
TORSDOF 19
REMARK  Name = ../refined-set-2016/2w8w/2w8w_pocket.pdb
REMARK  239 active torsions:
REMARK  status: ('A' for Active; 'I' for Inactive)
REMARK    1  A    between atoms: _1  and  _3
REMARK    2  A    between atoms: _3  and  _4
REMARK    3  A    between atoms: _6  and  _8
REMARK    4  A    between atoms: _8  and  _9
REMARK    5  A    between atoms: _8  and  _11
REMARK    6  A    between atoms: _11  and  _12
REMARK    7  A    between atoms: _17  and  _18
REMARK    8  A    between atoms: _20  and  _22
REMARK    9  A    between atoms: _22  and  _23
REMARK   10  A    between atoms: _22  and  _25
REMARK   11  A    between atoms: _25  and  _26
REMARK   12  A    between atoms: _31  and  _32
REMARK   13  A    between atoms: _34  and  _36
REMARK   14  A    between atoms: _36  and  _37
REMARK   15  A    between atoms: _36  and  _39
REMARK   16  A    between atoms: _39  and  _40
REMARK   17  A    between atoms: _42  and  _44
REMARK   18  A    between atoms: _44  and  _45
REMARK   19  A    between atoms: _44  and  _47
REMARK   20  A    between atoms: _47  and  _48
REMARK   21  A    between atoms: _51  and  _53
REMARK   22  A    between atoms: _53  and  _54
REMARK   23  A    between atoms: _56  and  _58
REMARK   24  A    between atoms: _58  and  _59
REMARK   25  A    between atoms: _58  and  _61
REMARK   26  A    between atoms: _61  and  _62
REMARK   27  A    between atoms: _67  and  _68
REMARK   28  A    between atoms: _70  and  _72
REMARK   29  A    between atoms: _72  and  _73
REMARK   30  A    between atoms: _72  and  _75
REMARK   31  A    between atoms: _75  and  _76
REMARK   32  A    between atoms: _76  and  _77
REMARK   33  A    between atoms: _79  and  _81
REMARK   34  A    between atoms: _81  and  _82
REMARK   35  A    between atoms: _85  and  _87
REMARK   36  A    between atoms: _87  and  _88
REMARK   37  A    between atoms: _87  and  _90
REMARK   38  A    between atoms: _90  and  _91
REMARK   39  A    between atoms: _96  and  _98
REMARK   40  A    between atoms: _98  and  _99
REMARK   41  A    between atoms: _98  and  _101
REMARK   42  A    between atoms: _101  and  _102
REMARK   43  A    between atoms: _105  and  _107
REMARK   44  A    between atoms: _107  and  _108
REMARK   45  A    between atoms: _107  and  _110
REMARK   46  A    between atoms: _110  and  _111
REMARK   47  A    between atoms: _114  and  _116
REMARK   48  A    between atoms: _116  and  _117
REMARK   49  A    between atoms: _116  and  _119
REMARK   50  A    between atoms: _119  and  _120
REMARK   51  A    between atoms: _122  and  _124
REMARK   52  A    between atoms: _124  and  _125
REMARK   53  A    between atoms: _124  and  _127
REMARK   54  A    between atoms: _127  and  _128
REMARK   55  A    between atoms: _133  and  _135
REMARK   56  A    between atoms: _135  and  _136
REMARK   57  A    between atoms: _139  and  _141
REMARK   58  A    between atoms: _141  and  _142
REMARK   59  A    between atoms: _141  and  _144
REMARK   60  A    between atoms: _144  and  _145
REMARK   61  A    between atoms: _147  and  _149
REMARK   62  A    between atoms: _149  and  _150
REMARK   63  A    between atoms: _149  and  _152
REMARK   64  A    between atoms: _152  and  _153
REMARK   65  A    between atoms: _156  and  _158
REMARK   66  A    between atoms: _158  and  _159
REMARK   67  A    between atoms: _158  and  _161
REMARK   68  A    between atoms: _161  and  _162
REMARK   69  A    between atoms: _165  and  _167
REMARK   70  A    between atoms: _167  and  _168
REMARK   71  A    between atoms: _167  and  _170
REMARK   72  A    between atoms: _170  and  _171
REMARK   73  A    between atoms: _171  and  _172
REMARK   74  A    between atoms: _175  and  _177
REMARK   75  A    between atoms: _177  and  _178
REMARK   76  A    between atoms: _180  and  _182
REMARK   77  A    between atoms: _182  and  _183
REMARK   78  A    between atoms: _182  and  _185
REMARK   79  A    between atoms: _188  and  _190
REMARK   80  A    between atoms: _190  and  _191
REMARK   81  A    between atoms: _190  and  _193
REMARK   82  A    between atoms: _193  and  _194
REMARK   83  A    between atoms: _199  and  _200
REMARK   84  A    between atoms: _202  and  _204
REMARK   85  A    between atoms: _204  and  _205
REMARK   86  A    between atoms: _204  and  _207
REMARK   87  A    between atoms: _207  and  _208
REMARK   88  A    between atoms: _210  and  _212
REMARK   89  A    between atoms: _212  and  _213
REMARK   90  A    between atoms: _212  and  _215
REMARK   91  A    between atoms: _215  and  _216
REMARK   92  A    between atoms: _216  and  _217
REMARK   93  A    between atoms: _219  and  _221
REMARK   94  A    between atoms: _221  and  _222
REMARK   95  A    between atoms: _221  and  _224
REMARK   96  A    between atoms: _224  and  _225
REMARK   97  A    between atoms: _228  and  _230
REMARK   98  A    between atoms: _230  and  _231
REMARK   99  A    between atoms: _230  and  _233
REMARK  100  A    between atoms: _233  and  _234
REMARK  101  A    between atoms: _234  and  _235
REMARK  102  A    between atoms: _238  and  _240
REMARK  103  A    between atoms: _240  and  _241
REMARK  104  A    between atoms: _244  and  _246
REMARK  105  A    between atoms: _246  and  _247
REMARK  106  A    between atoms: _246  and  _249
REMARK  107  A    between atoms: _249  and  _250
REMARK  108  A    between atoms: _255  and  _257
REMARK  109  A    between atoms: _257  and  _258
REMARK  110  A    between atoms: _257  and  _260
REMARK  111  A    between atoms: _260  and  _261
REMARK  112  A    between atoms: _263  and  _265
REMARK  113  A    between atoms: _265  and  _266
REMARK  114  A    between atoms: _265  and  _268
REMARK  115  A    between atoms: _271  and  _273
REMARK  116  A    between atoms: _273  and  _274
REMARK  117  A    between atoms: _276  and  _278
REMARK  118  A    between atoms: _278  and  _279
REMARK  119  A    between atoms: _278  and  _281
REMARK  120  A    between atoms: _281  and  _282
REMARK  121  A    between atoms: _285  and  _287
REMARK  122  A    between atoms: _287  and  _288
REMARK  123  A    between atoms: _287  and  _290
REMARK  124  A    between atoms: _290  and  _291
REMARK  125  A    between atoms: _297  and  _299
REMARK  126  A    between atoms: _299  and  _300
REMARK  127  A    between atoms: _299  and  _302
REMARK  128  A    between atoms: _302  and  _303
REMARK  129  A    between atoms: _305  and  _307
REMARK  130  A    between atoms: _307  and  _308
REMARK  131  A    between atoms: _307  and  _310
REMARK  132  A    between atoms: _310  and  _311
REMARK  133  A    between atoms: _311  and  _312
REMARK  134  A    between atoms: _312  and  _313
REMARK  135  A    between atoms: _313  and  _314
REMARK  136  A    between atoms: _318  and  _320
REMARK  137  A    between atoms: _320  and  _321
REMARK  138  A    between atoms: _320  and  _323
REMARK  139  A    between atoms: _323  and  _324
REMARK  140  A    between atoms: _327  and  _329
REMARK  141  A    between atoms: _329  and  _330
REMARK  142  A    between atoms: _329  and  _332
REMARK  143  A    between atoms: _335  and  _337
REMARK  144  A    between atoms: _337  and  _338
REMARK  145  A    between atoms: _340  and  _342
REMARK  146  A    between atoms: _342  and  _343
REMARK  147  A    between atoms: _345  and  _347
REMARK  148  A    between atoms: _347  and  _348
REMARK  149  A    between atoms: _347  and  _350
REMARK  150  A    between atoms: _350  and  _351
REMARK  151  A    between atoms: _357  and  _359
REMARK  152  A    between atoms: _359  and  _360
REMARK  153  A    between atoms: _359  and  _362
REMARK  154  A    between atoms: _362  and  _363
REMARK  155  A    between atoms: _366  and  _368
REMARK  156  A    between atoms: _368  and  _369
REMARK  157  A    between atoms: _368  and  _371
REMARK  158  A    between atoms: _371  and  _372
REMARK  159  A    between atoms: _377  and  _379
REMARK  160  A    between atoms: _379  and  _380
REMARK  161  A    between atoms: _379  and  _382
REMARK  162  A    between atoms: _382  and  _383
REMARK  163  A    between atoms: _383  and  _384
REMARK  164  A    between atoms: _384  and  _385
REMARK  165  A    between atoms: _394  and  _396
REMARK  166  A    between atoms: _396  and  _397
REMARK  167  A    between atoms: _396  and  _399
REMARK  168  A    between atoms: _399  and  _400
REMARK  169  A    between atoms: _403  and  _405
REMARK  170  A    between atoms: _405  and  _406
REMARK  171  A    between atoms: _405  and  _408
REMARK  172  A    between atoms: _408  and  _409
REMARK  173  A    between atoms: _414  and  _415
REMARK  174  A    between atoms: _417  and  _419
REMARK  175  A    between atoms: _419  and  _420
REMARK  176  A    between atoms: _422  and  _424
REMARK  177  A    between atoms: _424  and  _425
REMARK  178  A    between atoms: _424  and  _427
REMARK  179  A    between atoms: _427  and  _428
REMARK  180  A    between atoms: _430  and  _432
REMARK  181  A    between atoms: _432  and  _433
REMARK  182  A    between atoms: _432  and  _435
REMARK  183  A    between atoms: _435  and  _436
REMARK  184  A    between atoms: _436  and  _437
REMARK  185  A    between atoms: _437  and  _438
REMARK  186  A    between atoms: _447  and  _449
REMARK  187  A    between atoms: _449  and  _450
REMARK  188  A    between atoms: _449  and  _452
REMARK  189  A    between atoms: _452  and  _453
REMARK  190  A    between atoms: _453  and  _454
REMARK  191  A    between atoms: _456  and  _458
REMARK  192  A    between atoms: _458  and  _459
REMARK  193  A    between atoms: _458  and  _461
REMARK  194  A    between atoms: _461  and  _462
REMARK  195  A    between atoms: _465  and  _467
REMARK  196  A    between atoms: _467  and  _468
REMARK  197  A    between atoms: _467  and  _470
REMARK  198  A    between atoms: _470  and  _471
REMARK  199  A    between atoms: _476  and  _478
REMARK  200  A    between atoms: _478  and  _479
REMARK  201  A    between atoms: _481  and  _483
REMARK  202  A    between atoms: _483  and  _484
REMARK  203  A    between atoms: _483  and  _486
REMARK  204  A    between atoms: _486  and  _487
REMARK  205  A    between atoms: _489  and  _491
REMARK  206  A    between atoms: _491  and  _492
REMARK  207  A    between atoms: _491  and  _494
REMARK  208  A    between atoms: _494  and  _495
REMARK  209  A    between atoms: _495  and  _496
REMARK  210  A    between atoms: _498  and  _500
REMARK  211  A    between atoms: _500  and  _501
REMARK  212  A    between atoms: _500  and  _503
REMARK  213  A    between atoms: _503  and  _504
REMARK  214  A    between atoms: _504  and  _505
REMARK  215  A    between atoms: _505  and  _506
REMARK  216  A    between atoms: _516  and  _517
REMARK  217  A    between atoms: _522  and  _524
REMARK  218  A    between atoms: _524  and  _525
REMARK  219  A    between atoms: _524  and  _527
REMARK  220  A    between atoms: _527  and  _528
REMARK  221  A    between atoms: _533  and  _534
REMARK  222  A    between atoms: _536  and  _538
REMARK  223  A    between atoms: _538  and  _539
REMARK  224  A    between atoms: _538  and  _541
REMARK  225  A    between atoms: _541  and  _542
REMARK  226  A    between atoms: _545  and  _547
REMARK  227  A    between atoms: _547  and  _548
REMARK  228  A    between atoms: _547  and  _550
REMARK  229  A    between atoms: _550  and  _551
REMARK  230  A    between atoms: _557  and  _559
REMARK  231  A    between atoms: _559  and  _560
REMARK  232  A    between atoms: _559  and  _562
REMARK  233  A    between atoms: _562  and  _563
REMARK  234  A    between atoms: _566  and  _568
REMARK  235  A    between atoms: _568  and  _569
REMARK  236  A    between atoms: _572  and  _574
REMARK  237  A    between atoms: _574  and  _575
REMARK  238  A    between atoms: _574  and  _577
REMARK  239  A    between atoms: _577  and  _578
REMARK                            x       y       z     vdW  Elec       q    Type
REMARK                         _______ _______ _______ _____ _____    ______ ____
ROOT
ATOM      1  CA  PHE A   4      27.686  22.907  18.851  0.00  0.00    +0.153 C 
ENDROOT
BRANCH   1   3
ATOM      2  C   THR A   3      26.593  20.761  18.608  0.00  0.00    +0.243 C 
ATOM      3  N   PHE A   4      27.644  21.463  19.011  0.00  0.00    -0.297 N 
ATOM      4  H   PHE A   4      28.450  20.973  19.448  0.00  0.00    +0.150 HD
ATOM      5  O   THR A   3      25.542  21.288  18.222  0.00  0.00    -0.273 OA
BRANCH   2   6
ATOM      6  CA  THR A   3      26.758  19.242  18.634  0.00  0.00    +0.176 C 
BRANCH   6   9
ATOM      7  C   GLY A   2      25.137  17.581  19.427  0.00  0.00    +0.243 C 
ATOM      8  O   GLY A   2      25.854  17.146  20.323  0.00  0.00    -0.273 OA
ATOM      9  N   THR A   3      25.467  18.579  18.621  0.00  0.00    -0.295 N 
ATOM     10  H   THR A   3      24.757  18.908  17.936  0.00  0.00    +0.150 HD
BRANCH   7  11
ATOM     11  CA  GLY A   2      23.768  17.005  19.184  0.00  0.00    +0.176 C 
BRANCH  11  13
ATOM     12  C   VAL A   1      22.567  15.045  19.928  0.00  0.00    +0.238 C 
ATOM     13  N   GLY A   2      23.452  15.997  20.173  0.00  0.00    -0.296 N 
ATOM     14  H   GLY A   2      23.931  16.022  21.096  0.00  0.00    +0.150 HD
ATOM     15  O   VAL A   1      21.875  15.018  18.914  0.00  0.00    -0.274 OA
BRANCH  12  16
ATOM     16  CA  VAL A   1      22.420  14.003  21.013  0.00  0.00    +0.145 C 
BRANCH  16  17
ATOM     17  CB  VAL A   1      23.455  12.838  20.817  0.00  0.00    +0.025 C 
ATOM     18  CG2 VAL A   1      24.866  13.395  20.527  0.00  0.00    +0.002 C 
ATOM     19  CG1 VAL A   1      23.048  11.898  19.717  0.00  0.00    +0.002 C 
ENDBRANCH  16  17
BRANCH  16  20
ATOM     20  N   VAL A   1      21.033  13.552  21.021  0.00  0.00    -0.238 NA
ATOM     21  H   VAL A   1      20.696  12.936  20.254  0.00  0.00    +0.142 HD
ENDBRANCH  16  20
ENDBRANCH  12  16
ENDBRANCH  11  13
ENDBRANCH   7  11
ENDBRANCH   6   9
BRANCH   6  22
ATOM     22  CB  THR A   3      27.604  18.830  17.415  0.00  0.00    +0.137 C 
ATOM     23  CG2 THR A   3      26.907  19.206  16.121  0.00  0.00    +0.034 C 
BRANCH  22  24
ATOM     24  OG1 THR A   3      28.872  19.495  17.463  0.00  0.00    -0.382 OA
ATOM     25  HG1 THR A   3      29.413  19.228  16.678  0.00  0.00    +0.210 HD
ENDBRANCH  22  24
ENDBRANCH   6  22
ENDBRANCH   2   6
ENDBRANCH   1   3
BRANCH   1  26
ATOM     26  C   PHE A   4      28.324  23.306  17.519  0.00  0.00    +0.241 C 
ATOM     27  O   PHE A   4      28.330  24.490  17.161  0.00  0.00    -0.273 OA
ATOM     28  N   SER A   5      28.844  22.327  16.780  0.00  0.00    -0.295 N 
ATOM     29  H   SER A   5      28.623  21.339  17.017  0.00  0.00    +0.150 HD
BRANCH  28  30
ATOM     30  CA  SER A   5      29.725  22.613  15.635  0.00  0.00    +0.178 C 
BRANCH  30  31
ATOM     31  C   SER A   5      29.006  22.799  14.314  0.00  0.00    +0.243 C 
ATOM     32  N   LYS A   6      27.703  22.546  14.294  0.00  0.00    -0.298 N 
ATOM     33  H   LYS A   6      27.232  22.193  15.152  0.00  0.00    +0.150 HD
ATOM     34  O   SER A   5      29.633  23.169  13.316  0.00  0.00    -0.273 OA
BRANCH  32  35
ATOM     35  CA  LYS A   6      26.934  22.757  13.089  0.00  0.00    +0.137 C 
BRANCH  35  36
ATOM     36  C   LYS A   6      26.171  24.078  13.217  0.00  0.00    +0.227 C 
ATOM     37  O   LYS A   6      26.773  25.140  13.037  0.00  0.00    -0.286 OA
ENDBRANCH  35  36
BRANCH  35  38
ATOM     38  CB  LYS A   6      26.039  21.538  12.777  0.00  0.00    +0.028 C 
BRANCH  38  39
ATOM     39  CG  LYS A   6      26.785  20.422  12.024  0.00  0.00    -0.000 C 
BRANCH  39  40
ATOM     40  CD  LYS A   6      27.437  19.414  12.936  0.00  0.00    -0.024 C 
BRANCH  40  41
ATOM     41  CE  LYS A   6      28.437  18.538  12.180  0.00  0.00    -0.086 C 
BRANCH  41  42
ATOM     42  NZ  LYS A   6      29.736  19.265  11.929  0.00  0.00    +0.380 N 
ATOM     43  HZ1 LYS A   6      30.160  19.538  12.838  0.00  0.00    -0.089 HD
ATOM     44  HZ2 LYS A   6      30.388  18.639  11.415  0.00  0.00    -0.089 HD
ATOM     45  HZ3 LYS A   6      29.551  20.117  11.362  0.00  0.00    -0.089 HD
ENDBRANCH  41  42
ENDBRANCH  40  41
ENDBRANCH  39  40
ENDBRANCH  38  39
ENDBRANCH  35  38
ENDBRANCH  32  35
ENDBRANCH  30  31
BRANCH  30  46
ATOM     46  CB  SER A   5      30.777  21.519  15.487  0.00  0.00    +0.166 C 
BRANCH  46  47
ATOM     47  OG  SER A   5      30.161  20.261  15.299  0.00  0.00    -0.380 OA
ATOM     48  H   SER A   5      29.590  20.055  16.081  0.00  0.00    +0.211 HD
ENDBRANCH  46  47
ENDBRANCH  30  46
ENDBRANCH  28  30
ENDBRANCH   1  26
BRANCH   1  49
ATOM     49  CB  PHE A   4      28.445  23.585  20.010  0.00  0.00    +0.055 C 
BRANCH  49  50
ATOM     50  CG  PHE A   4      27.796  23.426  21.366  0.00  0.00    -0.020 A 
ATOM     51  CD2 PHE A   4      28.539  23.650  22.516  0.00  0.00    -0.004 A 
ATOM     52  CE2 PHE A   4      27.973  23.528  23.767  0.00  0.00    -0.000 A 
ATOM     53  CZ  PHE A   4      26.650  23.184  23.887  0.00  0.00    -0.000 A 
ATOM     54  CE1 PHE A   4      25.889  22.969  22.762  0.00  0.00    -0.000 A 
ATOM     55  CD1 PHE A   4      26.455  23.096  21.505  0.00  0.00    -0.004 A 
ENDBRANCH  49  50
ENDBRANCH   1  49
TORSDOF 24
REMARK  Name = ../refined-set-2016/2w8w/2w8w_pocket.pdb
REMARK  239 active torsions:
REMARK  status: ('A' for Active; 'I' for Inactive)
REMARK    1  A    between atoms: _1  and  _3
REMARK    2  A    between atoms: _3  and  _4
REMARK    3  A    between atoms: _6  and  _8
REMARK    4  A    between atoms: _8  and  _9
REMARK    5  A    between atoms: _8  and  _11
REMARK    6  A    between atoms: _11  and  _12
REMARK    7  A    between atoms: _17  and  _18
REMARK    8  A    between atoms: _20  and  _22
REMARK    9  A    between atoms: _22  and  _23
REMARK   10  A    between atoms: _22  and  _25
REMARK   11  A    between atoms: _25  and  _26
REMARK   12  A    between atoms: _31  and  _32
REMARK   13  A    between atoms: _34  and  _36
REMARK   14  A    between atoms: _36  and  _37
REMARK   15  A    between atoms: _36  and  _39
REMARK   16  A    between atoms: _39  and  _40
REMARK   17  A    between atoms: _42  and  _44
REMARK   18  A    between atoms: _44  and  _45
REMARK   19  A    between atoms: _44  and  _47
REMARK   20  A    between atoms: _47  and  _48
REMARK   21  A    between atoms: _51  and  _53
REMARK   22  A    between atoms: _53  and  _54
REMARK   23  A    between atoms: _56  and  _58
REMARK   24  A    between atoms: _58  and  _59
REMARK   25  A    between atoms: _58  and  _61
REMARK   26  A    between atoms: _61  and  _62
REMARK   27  A    between atoms: _67  and  _68
REMARK   28  A    between atoms: _70  and  _72
REMARK   29  A    between atoms: _72  and  _73
REMARK   30  A    between atoms: _72  and  _75
REMARK   31  A    between atoms: _75  and  _76
REMARK   32  A    between atoms: _76  and  _77
REMARK   33  A    between atoms: _79  and  _81
REMARK   34  A    between atoms: _81  and  _82
REMARK   35  A    between atoms: _85  and  _87
REMARK   36  A    between atoms: _87  and  _88
REMARK   37  A    between atoms: _87  and  _90
REMARK   38  A    between atoms: _90  and  _91
REMARK   39  A    between atoms: _96  and  _98
REMARK   40  A    between atoms: _98  and  _99
REMARK   41  A    between atoms: _98  and  _101
REMARK   42  A    between atoms: _101  and  _102
REMARK   43  A    between atoms: _105  and  _107
REMARK   44  A    between atoms: _107  and  _108
REMARK   45  A    between atoms: _107  and  _110
REMARK   46  A    between atoms: _110  and  _111
REMARK   47  A    between atoms: _114  and  _116
REMARK   48  A    between atoms: _116  and  _117
REMARK   49  A    between atoms: _116  and  _119
REMARK   50  A    between atoms: _119  and  _120
REMARK   51  A    between atoms: _122  and  _124
REMARK   52  A    between atoms: _124  and  _125
REMARK   53  A    between atoms: _124  and  _127
REMARK   54  A    between atoms: _127  and  _128
REMARK   55  A    between atoms: _133  and  _135
REMARK   56  A    between atoms: _135  and  _136
REMARK   57  A    between atoms: _139  and  _141
REMARK   58  A    between atoms: _141  and  _142
REMARK   59  A    between atoms: _141  and  _144
REMARK   60  A    between atoms: _144  and  _145
REMARK   61  A    between atoms: _147  and  _149
REMARK   62  A    between atoms: _149  and  _150
REMARK   63  A    between atoms: _149  and  _152
REMARK   64  A    between atoms: _152  and  _153
REMARK   65  A    between atoms: _156  and  _158
REMARK   66  A    between atoms: _158  and  _159
REMARK   67  A    between atoms: _158  and  _161
REMARK   68  A    between atoms: _161  and  _162
REMARK   69  A    between atoms: _165  and  _167
REMARK   70  A    between atoms: _167  and  _168
REMARK   71  A    between atoms: _167  and  _170
REMARK   72  A    between atoms: _170  and  _171
REMARK   73  A    between atoms: _171  and  _172
REMARK   74  A    between atoms: _175  and  _177
REMARK   75  A    between atoms: _177  and  _178
REMARK   76  A    between atoms: _180  and  _182
REMARK   77  A    between atoms: _182  and  _183
REMARK   78  A    between atoms: _182  and  _185
REMARK   79  A    between atoms: _188  and  _190
REMARK   80  A    between atoms: _190  and  _191
REMARK   81  A    between atoms: _190  and  _193
REMARK   82  A    between atoms: _193  and  _194
REMARK   83  A    between atoms: _199  and  _200
REMARK   84  A    between atoms: _202  and  _204
REMARK   85  A    between atoms: _204  and  _205
REMARK   86  A    between atoms: _204  and  _207
REMARK   87  A    between atoms: _207  and  _208
REMARK   88  A    between atoms: _210  and  _212
REMARK   89  A    between atoms: _212  and  _213
REMARK   90  A    between atoms: _212  and  _215
REMARK   91  A    between atoms: _215  and  _216
REMARK   92  A    between atoms: _216  and  _217
REMARK   93  A    between atoms: _219  and  _221
REMARK   94  A    between atoms: _221  and  _222
REMARK   95  A    between atoms: _221  and  _224
REMARK   96  A    between atoms: _224  and  _225
REMARK   97  A    between atoms: _228  and  _230
REMARK   98  A    between atoms: _230  and  _231
REMARK   99  A    between atoms: _230  and  _233
REMARK  100  A    between atoms: _233  and  _234
REMARK  101  A    between atoms: _234  and  _235
REMARK  102  A    between atoms: _238  and  _240
REMARK  103  A    between atoms: _240  and  _241
REMARK  104  A    between atoms: _244  and  _246
REMARK  105  A    between atoms: _246  and  _247
REMARK  106  A    between atoms: _246  and  _249
REMARK  107  A    between atoms: _249  and  _250
REMARK  108  A    between atoms: _255  and  _257
REMARK  109  A    between atoms: _257  and  _258
REMARK  110  A    between atoms: _257  and  _260
REMARK  111  A    between atoms: _260  and  _261
REMARK  112  A    between atoms: _263  and  _265
REMARK  113  A    between atoms: _265  and  _266
REMARK  114  A    between atoms: _265  and  _268
REMARK  115  A    between atoms: _271  and  _273
REMARK  116  A    between atoms: _273  and  _274
REMARK  117  A    between atoms: _276  and  _278
REMARK  118  A    between atoms: _278  and  _279
REMARK  119  A    between atoms: _278  and  _281
REMARK  120  A    between atoms: _281  and  _282
REMARK  121  A    between atoms: _285  and  _287
REMARK  122  A    between atoms: _287  and  _288
REMARK  123  A    between atoms: _287  and  _290
REMARK  124  A    between atoms: _290  and  _291
REMARK  125  A    between atoms: _297  and  _299
REMARK  126  A    between atoms: _299  and  _300
REMARK  127  A    between atoms: _299  and  _302
REMARK  128  A    between atoms: _302  and  _303
REMARK  129  A    between atoms: _305  and  _307
REMARK  130  A    between atoms: _307  and  _308
REMARK  131  A    between atoms: _307  and  _310
REMARK  132  A    between atoms: _310  and  _311
REMARK  133  A    between atoms: _311  and  _312
REMARK  134  A    between atoms: _312  and  _313
REMARK  135  A    between atoms: _313  and  _314
REMARK  136  A    between atoms: _318  and  _320
REMARK  137  A    between atoms: _320  and  _321
REMARK  138  A    between atoms: _320  and  _323
REMARK  139  A    between atoms: _323  and  _324
REMARK  140  A    between atoms: _327  and  _329
REMARK  141  A    between atoms: _329  and  _330
REMARK  142  A    between atoms: _329  and  _332
REMARK  143  A    between atoms: _335  and  _337
REMARK  144  A    between atoms: _337  and  _338
REMARK  145  A    between atoms: _340  and  _342
REMARK  146  A    between atoms: _342  and  _343
REMARK  147  A    between atoms: _345  and  _347
REMARK  148  A    between atoms: _347  and  _348
REMARK  149  A    between atoms: _347  and  _350
REMARK  150  A    between atoms: _350  and  _351
REMARK  151  A    between atoms: _357  and  _359
REMARK  152  A    between atoms: _359  and  _360
REMARK  153  A    between atoms: _359  and  _362
REMARK  154  A    between atoms: _362  and  _363
REMARK  155  A    between atoms: _366  and  _368
REMARK  156  A    between atoms: _368  and  _369
REMARK  157  A    between atoms: _368  and  _371
REMARK  158  A    between atoms: _371  and  _372
REMARK  159  A    between atoms: _377  and  _379
REMARK  160  A    between atoms: _379  and  _380
REMARK  161  A    between atoms: _379  and  _382
REMARK  162  A    between atoms: _382  and  _383
REMARK  163  A    between atoms: _383  and  _384
REMARK  164  A    between atoms: _384  and  _385
REMARK  165  A    between atoms: _394  and  _396
REMARK  166  A    between atoms: _396  and  _397
REMARK  167  A    between atoms: _396  and  _399
REMARK  168  A    between atoms: _399  and  _400
REMARK  169  A    between atoms: _403  and  _405
REMARK  170  A    between atoms: _405  and  _406
REMARK  171  A    between atoms: _405  and  _408
REMARK  172  A    between atoms: _408  and  _409
REMARK  173  A    between atoms: _414  and  _415
REMARK  174  A    between atoms: _417  and  _419
REMARK  175  A    between atoms: _419  and  _420
REMARK  176  A    between atoms: _422  and  _424
REMARK  177  A    between atoms: _424  and  _425
REMARK  178  A    between atoms: _424  and  _427
REMARK  179  A    between atoms: _427  and  _428
REMARK  180  A    between atoms: _430  and  _432
REMARK  181  A    between atoms: _432  and  _433
REMARK  182  A    between atoms: _432  and  _435
REMARK  183  A    between atoms: _435  and  _436
REMARK  184  A    between atoms: _436  and  _437
REMARK  185  A    between atoms: _437  and  _438
REMARK  186  A    between atoms: _447  and  _449
REMARK  187  A    between atoms: _449  and  _450
REMARK  188  A    between atoms: _449  and  _452
REMARK  189  A    between atoms: _452  and  _453
REMARK  190  A    between atoms: _453  and  _454
REMARK  191  A    between atoms: _456  and  _458
REMARK  192  A    between atoms: _458  and  _459
REMARK  193  A    between atoms: _458  and  _461
REMARK  194  A    between atoms: _461  and  _462
REMARK  195  A    between atoms: _465  and  _467
REMARK  196  A    between atoms: _467  and  _468
REMARK  197  A    between atoms: _467  and  _470
REMARK  198  A    between atoms: _470  and  _471
REMARK  199  A    between atoms: _476  and  _478
REMARK  200  A    between atoms: _478  and  _479
REMARK  201  A    between atoms: _481  and  _483
REMARK  202  A    between atoms: _483  and  _484
REMARK  203  A    between atoms: _483  and  _486
REMARK  204  A    between atoms: _486  and  _487
REMARK  205  A    between atoms: _489  and  _491
REMARK  206  A    between atoms: _491  and  _492
REMARK  207  A    between atoms: _491  and  _494
REMARK  208  A    between atoms: _494  and  _495
REMARK  209  A    between atoms: _495  and  _496
REMARK  210  A    between atoms: _498  and  _500
REMARK  211  A    between atoms: _500  and  _501
REMARK  212  A    between atoms: _500  and  _503
REMARK  213  A    between atoms: _503  and  _504
REMARK  214  A    between atoms: _504  and  _505
REMARK  215  A    between atoms: _505  and  _506
REMARK  216  A    between atoms: _516  and  _517
REMARK  217  A    between atoms: _522  and  _524
REMARK  218  A    between atoms: _524  and  _525
REMARK  219  A    between atoms: _524  and  _527
REMARK  220  A    between atoms: _527  and  _528
REMARK  221  A    between atoms: _533  and  _534
REMARK  222  A    between atoms: _536  and  _538
REMARK  223  A    between atoms: _538  and  _539
REMARK  224  A    between atoms: _538  and  _541
REMARK  225  A    between atoms: _541  and  _542
REMARK  226  A    between atoms: _545  and  _547
REMARK  227  A    between atoms: _547  and  _548
REMARK  228  A    between atoms: _547  and  _550
REMARK  229  A    between atoms: _550  and  _551
REMARK  230  A    between atoms: _557  and  _559
REMARK  231  A    between atoms: _559  and  _560
REMARK  232  A    between atoms: _559  and  _562
REMARK  233  A    between atoms: _562  and  _563
REMARK  234  A    between atoms: _566  and  _568
REMARK  235  A    between atoms: _568  and  _569
REMARK  236  A    between atoms: _572  and  _574
REMARK  237  A    between atoms: _574  and  _575
REMARK  238  A    between atoms: _574  and  _577
REMARK  239  A    between atoms: _577  and  _578
REMARK                            x       y       z     vdW  Elec       q    Type
REMARK                         _______ _______ _______ _____ _____    ______ ____
ROOT
ATOM      1  CA  GLY A   3      31.046  21.067  22.081  0.00  0.00    +0.176 C 
ENDROOT
BRANCH   1   4
ATOM      2  C   VAL A   2      31.958  22.932  20.799  0.00  0.00    +0.241 C 
ATOM      3  O   VAL A   2      31.593  23.786  21.617  0.00  0.00    -0.273 OA
ATOM      4  N   GLY A   3      31.741  21.629  20.939  0.00  0.00    -0.295 N 
ATOM      5  H   GLY A   3      32.084  20.985  20.198  0.00  0.00    +0.150 HD
BRANCH   2   6
ATOM      6  CA  VAL A   2      32.674  23.333  19.526  0.00  0.00    +0.148 C 
BRANCH   6   8
ATOM      7  C   THR A   1      31.697  25.116  18.199  0.00  0.00    +0.241 C 
ATOM      8  N   VAL A   2      32.436  24.746  19.245  0.00  0.00    -0.297 N 
ATOM      9  H   VAL A   2      32.847  25.471  19.867  0.00  0.00    +0.150 HD
ATOM     10  O   THR A   1      31.297  24.311  17.380  0.00  0.00    -0.274 OA
BRANCH   7  11
ATOM     11  CA  THR A   1      31.361  26.594  18.014  0.00  0.00    +0.172 C 
BRANCH  11  12
ATOM     12  N   THR A   1      30.114  26.716  17.258  0.00  0.00    -0.236 NA
ATOM     13  H   THR A   1      29.402  25.961  17.318  0.00  0.00    +0.142 HD
ENDBRANCH  11  12
BRANCH  11  14
ATOM     14  CB  THR A   1      31.260  27.347  19.359  0.00  0.00    +0.135 C 
ATOM     15  CG2 THR A   1      30.123  26.805  20.214  0.00  0.00    +0.034 C 
BRANCH  14  16
ATOM     16  OG1 THR A   1      32.506  27.241  20.055  0.00  0.00    -0.383 OA
ATOM     17  HG1 THR A   1      32.443  27.723  20.917  0.00  0.00    +0.210 HD
ENDBRANCH  14  16
ENDBRANCH  11  14
ENDBRANCH   7  11
ENDBRANCH   6   8
BRANCH   6  18
ATOM     18  CB  VAL A   2      34.165  22.988  19.659  0.00  0.00    +0.027 C 
ATOM     19  CG2 VAL A   2      34.854  23.881  20.711  0.00  0.00    +0.002 C 
ATOM     20  CG1 VAL A   2      34.828  23.089  18.316  0.00  0.00    +0.002 C 
ENDBRANCH   6  18
ENDBRANCH   2   6
ENDBRANCH   1   4
BRANCH   1  21
ATOM     21  C   GLY A   3      29.982  20.092  21.615  0.00  0.00    +0.243 C 
ATOM     22  N   GLY A   4      29.585  19.219  22.524  0.00  0.00    -0.295 N 
ATOM     23  H   GLY A   4      30.017  19.250  23.470  0.00  0.00    +0.150 HD
ATOM     24  O   GLY A   3      29.539  20.121  20.459  0.00  0.00    -0.273 OA
BRANCH  22  25
ATOM     25  CA  GLY A   4      28.569  18.218  22.253  0.00  0.00    +0.176 C 
BRANCH  25  26
ATOM     26  C   GLY A   4      27.584  18.222  23.386  0.00  0.00    +0.243 C 
ATOM     27  O   GLY A   4      27.807  18.863  24.396  0.00  0.00    -0.273 OA
ATOM     28  N   PHE A   5      26.487  17.513  23.231  0.00  0.00    -0.298 N 
ATOM     29  H   PHE A   5      26.321  16.998  22.343  0.00  0.00    +0.150 HD
BRANCH  28  30
ATOM     30  CA  PHE A   5      25.510  17.450  24.299  0.00  0.00    +0.141 C 
BRANCH  30  31
ATOM     31  C   PHE A   5      24.560  16.317  24.085  0.00  0.00    +0.227 C 
ATOM     32  O   PHE A   5      24.378  15.843  22.965  0.00  0.00    -0.286 OA
ENDBRANCH  30  31
BRANCH  30  33
ATOM     33  CB  PHE A   5      24.708  18.766  24.409  0.00  0.00    +0.054 C 
BRANCH  33  34
ATOM     34  CG  PHE A   5      23.861  19.070  23.202  0.00  0.00    -0.020 A 
ATOM     35  CD2 PHE A   5      22.590  18.510  23.062  0.00  0.00    -0.004 A 
ATOM     36  CE2 PHE A   5      21.807  18.795  21.946  0.00  0.00    -0.000 A 
ATOM     37  CZ  PHE A   5      22.286  19.652  20.968  0.00  0.00    -0.000 A 
ATOM     38  CE1 PHE A   5      23.549  20.210  21.097  0.00  0.00    -0.000 A 
ATOM     39  CD1 PHE A   5      24.323  19.925  22.216  0.00  0.00    -0.004 A 
ENDBRANCH  33  34
ENDBRANCH  30  33
ENDBRANCH  28  30
ENDBRANCH  25  26
ENDBRANCH  22  25
ENDBRANCH   1  21
TORSDOF 15
REMARK  Name = ../refined-set-2016/2w8w/2w8w_pocket.pdb
REMARK  239 active torsions:
REMARK  status: ('A' for Active; 'I' for Inactive)
REMARK    1  A    between atoms: _1  and  _3
REMARK    2  A    between atoms: _3  and  _4
REMARK    3  A    between atoms: _6  and  _8
REMARK    4  A    between atoms: _8  and  _9
REMARK    5  A    between atoms: _8  and  _11
REMARK    6  A    between atoms: _11  and  _12
REMARK    7  A    between atoms: _17  and  _18
REMARK    8  A    between atoms: _20  and  _22
REMARK    9  A    between atoms: _22  and  _23
REMARK   10  A    between atoms: _22  and  _25
REMARK   11  A    between atoms: _25  and  _26
REMARK   12  A    between atoms: _31  and  _32
REMARK   13  A    between atoms: _34  and  _36
REMARK   14  A    between atoms: _36  and  _37
REMARK   15  A    between atoms: _36  and  _39
REMARK   16  A    between atoms: _39  and  _40
REMARK   17  A    between atoms: _42  and  _44
REMARK   18  A    between atoms: _44  and  _45
REMARK   19  A    between atoms: _44  and  _47
REMARK   20  A    between atoms: _47  and  _48
REMARK   21  A    between atoms: _51  and  _53
REMARK   22  A    between atoms: _53  and  _54
REMARK   23  A    between atoms: _56  and  _58
REMARK   24  A    between atoms: _58  and  _59
REMARK   25  A    between atoms: _58  and  _61
REMARK   26  A    between atoms: _61  and  _62
REMARK   27  A    between atoms: _67  and  _68
REMARK   28  A    between atoms: _70  and  _72
REMARK   29  A    between atoms: _72  and  _73
REMARK   30  A    between atoms: _72  and  _75
REMARK   31  A    between atoms: _75  and  _76
REMARK   32  A    between atoms: _76  and  _77
REMARK   33  A    between atoms: _79  and  _81
REMARK   34  A    between atoms: _81  and  _82
REMARK   35  A    between atoms: _85  and  _87
REMARK   36  A    between atoms: _87  and  _88
REMARK   37  A    between atoms: _87  and  _90
REMARK   38  A    between atoms: _90  and  _91
REMARK   39  A    between atoms: _96  and  _98
REMARK   40  A    between atoms: _98  and  _99
REMARK   41  A    between atoms: _98  and  _101
REMARK   42  A    between atoms: _101  and  _102
REMARK   43  A    between atoms: _105  and  _107
REMARK   44  A    between atoms: _107  and  _108
REMARK   45  A    between atoms: _107  and  _110
REMARK   46  A    between atoms: _110  and  _111
REMARK   47  A    between atoms: _114  and  _116
REMARK   48  A    between atoms: _116  and  _117
REMARK   49  A    between atoms: _116  and  _119
REMARK   50  A    between atoms: _119  and  _120
REMARK   51  A    between atoms: _122  and  _124
REMARK   52  A    between atoms: _124  and  _125
REMARK   53  A    between atoms: _124  and  _127
REMARK   54  A    between atoms: _127  and  _128
REMARK   55  A    between atoms: _133  and  _135
REMARK   56  A    between atoms: _135  and  _136
REMARK   57  A    between atoms: _139  and  _141
REMARK   58  A    between atoms: _141  and  _142
REMARK   59  A    between atoms: _141  and  _144
REMARK   60  A    between atoms: _144  and  _145
REMARK   61  A    between atoms: _147  and  _149
REMARK   62  A    between atoms: _149  and  _150
REMARK   63  A    between atoms: _149  and  _152
REMARK   64  A    between atoms: _152  and  _153
REMARK   65  A    between atoms: _156  and  _158
REMARK   66  A    between atoms: _158  and  _159
REMARK   67  A    between atoms: _158  and  _161
REMARK   68  A    between atoms: _161  and  _162
REMARK   69  A    between atoms: _165  and  _167
REMARK   70  A    between atoms: _167  and  _168
REMARK   71  A    between atoms: _167  and  _170
REMARK   72  A    between atoms: _170  and  _171
REMARK   73  A    between atoms: _171  and  _172
REMARK   74  A    between atoms: _175  and  _177
REMARK   75  A    between atoms: _177  and  _178
REMARK   76  A    between atoms: _180  and  _182
REMARK   77  A    between atoms: _182  and  _183
REMARK   78  A    between atoms: _182  and  _185
REMARK   79  A    between atoms: _188  and  _190
REMARK   80  A    between atoms: _190  and  _191
REMARK   81  A    between atoms: _190  and  _193
REMARK   82  A    between atoms: _193  and  _194
REMARK   83  A    between atoms: _199  and  _200
REMARK   84  A    between atoms: _202  and  _204
REMARK   85  A    between atoms: _204  and  _205
REMARK   86  A    between atoms: _204  and  _207
REMARK   87  A    between atoms: _207  and  _208
REMARK   88  A    between atoms: _210  and  _212
REMARK   89  A    between atoms: _212  and  _213
REMARK   90  A    between atoms: _212  and  _215
REMARK   91  A    between atoms: _215  and  _216
REMARK   92  A    between atoms: _216  and  _217
REMARK   93  A    between atoms: _219  and  _221
REMARK   94  A    between atoms: _221  and  _222
REMARK   95  A    between atoms: _221  and  _224
REMARK   96  A    between atoms: _224  and  _225
REMARK   97  A    between atoms: _228  and  _230
REMARK   98  A    between atoms: _230  and  _231
REMARK   99  A    between atoms: _230  and  _233
REMARK  100  A    between atoms: _233  and  _234
REMARK  101  A    between atoms: _234  and  _235
REMARK  102  A    between atoms: _238  and  _240
REMARK  103  A    between atoms: _240  and  _241
REMARK  104  A    between atoms: _244  and  _246
REMARK  105  A    between atoms: _246  and  _247
REMARK  106  A    between atoms: _246  and  _249
REMARK  107  A    between atoms: _249  and  _250
REMARK  108  A    between atoms: _255  and  _257
REMARK  109  A    between atoms: _257  and  _258
REMARK  110  A    between atoms: _257  and  _260
REMARK  111  A    between atoms: _260  and  _261
REMARK  112  A    between atoms: _263  and  _265
REMARK  113  A    between atoms: _265  and  _266
REMARK  114  A    between atoms: _265  and  _268
REMARK  115  A    between atoms: _271  and  _273
REMARK  116  A    between atoms: _273  and  _274
REMARK  117  A    between atoms: _276  and  _278
REMARK  118  A    between atoms: _278  and  _279
REMARK  119  A    between atoms: _278  and  _281
REMARK  120  A    between atoms: _281  and  _282
REMARK  121  A    between atoms: _285  and  _287
REMARK  122  A    between atoms: _287  and  _288
REMARK  123  A    between atoms: _287  and  _290
REMARK  124  A    between atoms: _290  and  _291
REMARK  125  A    between atoms: _297  and  _299
REMARK  126  A    between atoms: _299  and  _300
REMARK  127  A    between atoms: _299  and  _302
REMARK  128  A    between atoms: _302  and  _303
REMARK  129  A    between atoms: _305  and  _307
REMARK  130  A    between atoms: _307  and  _308
REMARK  131  A    between atoms: _307  and  _310
REMARK  132  A    between atoms: _310  and  _311
REMARK  133  A    between atoms: _311  and  _312
REMARK  134  A    between atoms: _312  and  _313
REMARK  135  A    between atoms: _313  and  _314
REMARK  136  A    between atoms: _318  and  _320
REMARK  137  A    between atoms: _320  and  _321
REMARK  138  A    between atoms: _320  and  _323
REMARK  139  A    between atoms: _323  and  _324
REMARK  140  A    between atoms: _327  and  _329
REMARK  141  A    between atoms: _329  and  _330
REMARK  142  A    between atoms: _329  and  _332
REMARK  143  A    between atoms: _335  and  _337
REMARK  144  A    between atoms: _337  and  _338
REMARK  145  A    between atoms: _340  and  _342
REMARK  146  A    between atoms: _342  and  _343
REMARK  147  A    between atoms: _345  and  _347
REMARK  148  A    between atoms: _347  and  _348
REMARK  149  A    between atoms: _347  and  _350
REMARK  150  A    between atoms: _350  and  _351
REMARK  151  A    between atoms: _357  and  _359
REMARK  152  A    between atoms: _359  and  _360
REMARK  153  A    between atoms: _359  and  _362
REMARK  154  A    between atoms: _362  and  _363
REMARK  155  A    between atoms: _366  and  _368
REMARK  156  A    between atoms: _368  and  _369
REMARK  157  A    between atoms: _368  and  _371
REMARK  158  A    between atoms: _371  and  _372
REMARK  159  A    between atoms: _377  and  _379
REMARK  160  A    between atoms: _379  and  _380
REMARK  161  A    between atoms: _379  and  _382
REMARK  162  A    between atoms: _382  and  _383
REMARK  163  A    between atoms: _383  and  _384
REMARK  164  A    between atoms: _384  and  _385
REMARK  165  A    between atoms: _394  and  _396
REMARK  166  A    between atoms: _396  and  _397
REMARK  167  A    between atoms: _396  and  _399
REMARK  168  A    between atoms: _399  and  _400
REMARK  169  A    between atoms: _403  and  _405
REMARK  170  A    between atoms: _405  and  _406
REMARK  171  A    between atoms: _405  and  _408
REMARK  172  A    between atoms: _408  and  _409
REMARK  173  A    between atoms: _414  and  _415
REMARK  174  A    between atoms: _417  and  _419
REMARK  175  A    between atoms: _419  and  _420
REMARK  176  A    between atoms: _422  and  _424
REMARK  177  A    between atoms: _424  and  _425
REMARK  178  A    between atoms: _424  and  _427
REMARK  179  A    between atoms: _427  and  _428
REMARK  180  A    between atoms: _430  and  _432
REMARK  181  A    between atoms: _432  and  _433
REMARK  182  A    between atoms: _432  and  _435
REMARK  183  A    between atoms: _435  and  _436
REMARK  184  A    between atoms: _436  and  _437
REMARK  185  A    between atoms: _437  and  _438
REMARK  186  A    between atoms: _447  and  _449
REMARK  187  A    between atoms: _449  and  _450
REMARK  188  A    between atoms: _449  and  _452
REMARK  189  A    between atoms: _452  and  _453
REMARK  190  A    between atoms: _453  and  _454
REMARK  191  A    between atoms: _456  and  _458
REMARK  192  A    between atoms: _458  and  _459
REMARK  193  A    between atoms: _458  and  _461
REMARK  194  A    between atoms: _461  and  _462
REMARK  195  A    between atoms: _465  and  _467
REMARK  196  A    between atoms: _467  and  _468
REMARK  197  A    between atoms: _467  and  _470
REMARK  198  A    between atoms: _470  and  _471
REMARK  199  A    between atoms: _476  and  _478
REMARK  200  A    between atoms: _478  and  _479
REMARK  201  A    between atoms: _481  and  _483
REMARK  202  A    between atoms: _483  and  _484
REMARK  203  A    between atoms: _483  and  _486
REMARK  204  A    between atoms: _486  and  _487
REMARK  205  A    between atoms: _489  and  _491
REMARK  206  A    between atoms: _491  and  _492
REMARK  207  A    between atoms: _491  and  _494
REMARK  208  A    between atoms: _494  and  _495
REMARK  209  A    between atoms: _495  and  _496
REMARK  210  A    between atoms: _498  and  _500
REMARK  211  A    between atoms: _500  and  _501
REMARK  212  A    between atoms: _500  and  _503
REMARK  213  A    between atoms: _503  and  _504
REMARK  214  A    between atoms: _504  and  _505
REMARK  215  A    between atoms: _505  and  _506
REMARK  216  A    between atoms: _516  and  _517
REMARK  217  A    between atoms: _522  and  _524
REMARK  218  A    between atoms: _524  and  _525
REMARK  219  A    between atoms: _524  and  _527
REMARK  220  A    between atoms: _527  and  _528
REMARK  221  A    between atoms: _533  and  _534
REMARK  222  A    between atoms: _536  and  _538
REMARK  223  A    between atoms: _538  and  _539
REMARK  224  A    between atoms: _538  and  _541
REMARK  225  A    between atoms: _541  and  _542
REMARK  226  A    between atoms: _545  and  _547
REMARK  227  A    between atoms: _547  and  _548
REMARK  228  A    between atoms: _547  and  _550
REMARK  229  A    between atoms: _550  and  _551
REMARK  230  A    between atoms: _557  and  _559
REMARK  231  A    between atoms: _559  and  _560
REMARK  232  A    between atoms: _559  and  _562
REMARK  233  A    between atoms: _562  and  _563
REMARK  234  A    between atoms: _566  and  _568
REMARK  235  A    between atoms: _568  and  _569
REMARK  236  A    between atoms: _572  and  _574
REMARK  237  A    between atoms: _574  and  _575
REMARK  238  A    between atoms: _574  and  _577
REMARK  239  A    between atoms: _577  and  _578
REMARK                            x       y       z     vdW  Elec       q    Type
REMARK                         _______ _______ _______ _____ _____    ______ ____
ROOT
ATOM      1  CA  ILE A   1      22.838  18.979   2.542  0.00  0.00    +0.133 C 
ENDROOT
BRANCH   1   2
ATOM      2  N   ILE A   1      21.765  19.633   3.279  0.00  0.00    -0.239 NA
ATOM      3  H   ILE A   1      21.026  19.048   3.718  0.00  0.00    +0.142 HD
ENDBRANCH   1   2
BRANCH   1   4
ATOM      4  CB  ILE A   1      23.389  17.748   3.304  0.00  0.00    +0.023 C 
ATOM      5  CG2 ILE A   1      24.409  17.021   2.460  0.00  0.00    +0.002 C 
BRANCH   4   6
ATOM      6  CG1 ILE A   1      24.029  18.172   4.629  0.00  0.00    +0.002 C 
ATOM      7  CD1 ILE A   1      24.313  17.034   5.564  0.00  0.00    +0.000 C 
ENDBRANCH   4   6
ENDBRANCH   1   4
BRANCH   1   8
ATOM      8  C   ILE A   1      22.331  18.527   1.179  0.00  0.00    +0.224 C 
ATOM      9  O   ILE A   1      21.296  17.861   1.083  0.00  0.00    -0.287 OA
ENDBRANCH   1   8
TORSDOF 4
REMARK  Name = ../refined-set-2016/2w8w/2w8w_pocket.pdb
REMARK  239 active torsions:
REMARK  status: ('A' for Active; 'I' for Inactive)
REMARK    1  A    between atoms: _1  and  _3
REMARK    2  A    between atoms: _3  and  _4
REMARK    3  A    between atoms: _6  and  _8
REMARK    4  A    between atoms: _8  and  _9
REMARK    5  A    between atoms: _8  and  _11
REMARK    6  A    between atoms: _11  and  _12
REMARK    7  A    between atoms: _17  and  _18
REMARK    8  A    between atoms: _20  and  _22
REMARK    9  A    between atoms: _22  and  _23
REMARK   10  A    between atoms: _22  and  _25
REMARK   11  A    between atoms: _25  and  _26
REMARK   12  A    between atoms: _31  and  _32
REMARK   13  A    between atoms: _34  and  _36
REMARK   14  A    between atoms: _36  and  _37
REMARK   15  A    between atoms: _36  and  _39
REMARK   16  A    between atoms: _39  and  _40
REMARK   17  A    between atoms: _42  and  _44
REMARK   18  A    between atoms: _44  and  _45
REMARK   19  A    between atoms: _44  and  _47
REMARK   20  A    between atoms: _47  and  _48
REMARK   21  A    between atoms: _51  and  _53
REMARK   22  A    between atoms: _53  and  _54
REMARK   23  A    between atoms: _56  and  _58
REMARK   24  A    between atoms: _58  and  _59
REMARK   25  A    between atoms: _58  and  _61
REMARK   26  A    between atoms: _61  and  _62
REMARK   27  A    between atoms: _67  and  _68
REMARK   28  A    between atoms: _70  and  _72
REMARK   29  A    between atoms: _72  and  _73
REMARK   30  A    between atoms: _72  and  _75
REMARK   31  A    between atoms: _75  and  _76
REMARK   32  A    between atoms: _76  and  _77
REMARK   33  A    between atoms: _79  and  _81
REMARK   34  A    between atoms: _81  and  _82
REMARK   35  A    between atoms: _85  and  _87
REMARK   36  A    between atoms: _87  and  _88
REMARK   37  A    between atoms: _87  and  _90
REMARK   38  A    between atoms: _90  and  _91
REMARK   39  A    between atoms: _96  and  _98
REMARK   40  A    between atoms: _98  and  _99
REMARK   41  A    between atoms: _98  and  _101
REMARK   42  A    between atoms: _101  and  _102
REMARK   43  A    between atoms: _105  and  _107
REMARK   44  A    between atoms: _107  and  _108
REMARK   45  A    between atoms: _107  and  _110
REMARK   46  A    between atoms: _110  and  _111
REMARK   47  A    between atoms: _114  and  _116
REMARK   48  A    between atoms: _116  and  _117
REMARK   49  A    between atoms: _116  and  _119
REMARK   50  A    between atoms: _119  and  _120
REMARK   51  A    between atoms: _122  and  _124
REMARK   52  A    between atoms: _124  and  _125
REMARK   53  A    between atoms: _124  and  _127
REMARK   54  A    between atoms: _127  and  _128
REMARK   55  A    between atoms: _133  and  _135
REMARK   56  A    between atoms: _135  and  _136
REMARK   57  A    between atoms: _139  and  _141
REMARK   58  A    between atoms: _141  and  _142
REMARK   59  A    between atoms: _141  and  _144
REMARK   60  A    between atoms: _144  and  _145
REMARK   61  A    between atoms: _147  and  _149
REMARK   62  A    between atoms: _149  and  _150
REMARK   63  A    between atoms: _149  and  _152
REMARK   64  A    between atoms: _152  and  _153
REMARK   65  A    between atoms: _156  and  _158
REMARK   66  A    between atoms: _158  and  _159
REMARK   67  A    between atoms: _158  and  _161
REMARK   68  A    between atoms: _161  and  _162
REMARK   69  A    between atoms: _165  and  _167
REMARK   70  A    between atoms: _167  and  _168
REMARK   71  A    between atoms: _167  and  _170
REMARK   72  A    between atoms: _170  and  _171
REMARK   73  A    between atoms: _171  and  _172
REMARK   74  A    between atoms: _175  and  _177
REMARK   75  A    between atoms: _177  and  _178
REMARK   76  A    between atoms: _180  and  _182
REMARK   77  A    between atoms: _182  and  _183
REMARK   78  A    between atoms: _182  and  _185
REMARK   79  A    between atoms: _188  and  _190
REMARK   80  A    between atoms: _190  and  _191
REMARK   81  A    between atoms: _190  and  _193
REMARK   82  A    between atoms: _193  and  _194
REMARK   83  A    between atoms: _199  and  _200
REMARK   84  A    between atoms: _202  and  _204
REMARK   85  A    between atoms: _204  and  _205
REMARK   86  A    between atoms: _204  and  _207
REMARK   87  A    between atoms: _207  and  _208
REMARK   88  A    between atoms: _210  and  _212
REMARK   89  A    between atoms: _212  and  _213
REMARK   90  A    between atoms: _212  and  _215
REMARK   91  A    between atoms: _215  and  _216
REMARK   92  A    between atoms: _216  and  _217
REMARK   93  A    between atoms: _219  and  _221
REMARK   94  A    between atoms: _221  and  _222
REMARK   95  A    between atoms: _221  and  _224
REMARK   96  A    between atoms: _224  and  _225
REMARK   97  A    between atoms: _228  and  _230
REMARK   98  A    between atoms: _230  and  _231
REMARK   99  A    between atoms: _230  and  _233
REMARK  100  A    between atoms: _233  and  _234
REMARK  101  A    between atoms: _234  and  _235
REMARK  102  A    between atoms: _238  and  _240
REMARK  103  A    between atoms: _240  and  _241
REMARK  104  A    between atoms: _244  and  _246
REMARK  105  A    between atoms: _246  and  _247
REMARK  106  A    between atoms: _246  and  _249
REMARK  107  A    between atoms: _249  and  _250
REMARK  108  A    between atoms: _255  and  _257
REMARK  109  A    between atoms: _257  and  _258
REMARK  110  A    between atoms: _257  and  _260
REMARK  111  A    between atoms: _260  and  _261
REMARK  112  A    between atoms: _263  and  _265
REMARK  113  A    between atoms: _265  and  _266
REMARK  114  A    between atoms: _265  and  _268
REMARK  115  A    between atoms: _271  and  _273
REMARK  116  A    between atoms: _273  and  _274
REMARK  117  A    between atoms: _276  and  _278
REMARK  118  A    between atoms: _278  and  _279
REMARK  119  A    between atoms: _278  and  _281
REMARK  120  A    between atoms: _281  and  _282
REMARK  121  A    between atoms: _285  and  _287
REMARK  122  A    between atoms: _287  and  _288
REMARK  123  A    between atoms: _287  and  _290
REMARK  124  A    between atoms: _290  and  _291
REMARK  125  A    between atoms: _297  and  _299
REMARK  126  A    between atoms: _299  and  _300
REMARK  127  A    between atoms: _299  and  _302
REMARK  128  A    between atoms: _302  and  _303
REMARK  129  A    between atoms: _305  and  _307
REMARK  130  A    between atoms: _307  and  _308
REMARK  131  A    between atoms: _307  and  _310
REMARK  132  A    between atoms: _310  and  _311
REMARK  133  A    between atoms: _311  and  _312
REMARK  134  A    between atoms: _312  and  _313
REMARK  135  A    between atoms: _313  and  _314
REMARK  136  A    between atoms: _318  and  _320
REMARK  137  A    between atoms: _320  and  _321
REMARK  138  A    between atoms: _320  and  _323
REMARK  139  A    between atoms: _323  and  _324
REMARK  140  A    between atoms: _327  and  _329
REMARK  141  A    between atoms: _329  and  _330
REMARK  142  A    between atoms: _329  and  _332
REMARK  143  A    between atoms: _335  and  _337
REMARK  144  A    between atoms: _337  and  _338
REMARK  145  A    between atoms: _340  and  _342
REMARK  146  A    between atoms: _342  and  _343
REMARK  147  A    between atoms: _345  and  _347
REMARK  148  A    between atoms: _347  and  _348
REMARK  149  A    between atoms: _347  and  _350
REMARK  150  A    between atoms: _350  and  _351
REMARK  151  A    between atoms: _357  and  _359
REMARK  152  A    between atoms: _359  and  _360
REMARK  153  A    between atoms: _359  and  _362
REMARK  154  A    between atoms: _362  and  _363
REMARK  155  A    between atoms: _366  and  _368
REMARK  156  A    between atoms: _368  and  _369
REMARK  157  A    between atoms: _368  and  _371
REMARK  158  A    between atoms: _371  and  _372
REMARK  159  A    between atoms: _377  and  _379
REMARK  160  A    between atoms: _379  and  _380
REMARK  161  A    between atoms: _379  and  _382
REMARK  162  A    between atoms: _382  and  _383
REMARK  163  A    between atoms: _383  and  _384
REMARK  164  A    between atoms: _384  and  _385
REMARK  165  A    between atoms: _394  and  _396
REMARK  166  A    between atoms: _396  and  _397
REMARK  167  A    between atoms: _396  and  _399
REMARK  168  A    between atoms: _399  and  _400
REMARK  169  A    between atoms: _403  and  _405
REMARK  170  A    between atoms: _405  and  _406
REMARK  171  A    between atoms: _405  and  _408
REMARK  172  A    between atoms: _408  and  _409
REMARK  173  A    between atoms: _414  and  _415
REMARK  174  A    between atoms: _417  and  _419
REMARK  175  A    between atoms: _419  and  _420
REMARK  176  A    between atoms: _422  and  _424
REMARK  177  A    between atoms: _424  and  _425
REMARK  178  A    between atoms: _424  and  _427
REMARK  179  A    between atoms: _427  and  _428
REMARK  180  A    between atoms: _430  and  _432
REMARK  181  A    between atoms: _432  and  _433
REMARK  182  A    between atoms: _432  and  _435
REMARK  183  A    between atoms: _435  and  _436
REMARK  184  A    between atoms: _436  and  _437
REMARK  185  A    between atoms: _437  and  _438
REMARK  186  A    between atoms: _447  and  _449
REMARK  187  A    between atoms: _449  and  _450
REMARK  188  A    between atoms: _449  and  _452
REMARK  189  A    between atoms: _452  and  _453
REMARK  190  A    between atoms: _453  and  _454
REMARK  191  A    between atoms: _456  and  _458
REMARK  192  A    between atoms: _458  and  _459
REMARK  193  A    between atoms: _458  and  _461
REMARK  194  A    between atoms: _461  and  _462
REMARK  195  A    between atoms: _465  and  _467
REMARK  196  A    between atoms: _467  and  _468
REMARK  197  A    between atoms: _467  and  _470
REMARK  198  A    between atoms: _470  and  _471
REMARK  199  A    between atoms: _476  and  _478
REMARK  200  A    between atoms: _478  and  _479
REMARK  201  A    between atoms: _481  and  _483
REMARK  202  A    between atoms: _483  and  _484
REMARK  203  A    between atoms: _483  and  _486
REMARK  204  A    between atoms: _486  and  _487
REMARK  205  A    between atoms: _489  and  _491
REMARK  206  A    between atoms: _491  and  _492
REMARK  207  A    between atoms: _491  and  _494
REMARK  208  A    between atoms: _494  and  _495
REMARK  209  A    between atoms: _495  and  _496
REMARK  210  A    between atoms: _498  and  _500
REMARK  211  A    between atoms: _500  and  _501
REMARK  212  A    between atoms: _500  and  _503
REMARK  213  A    between atoms: _503  and  _504
REMARK  214  A    between atoms: _504  and  _505
REMARK  215  A    between atoms: _505  and  _506
REMARK  216  A    between atoms: _516  and  _517
REMARK  217  A    between atoms: _522  and  _524
REMARK  218  A    between atoms: _524  and  _525
REMARK  219  A    between atoms: _524  and  _527
REMARK  220  A    between atoms: _527  and  _528
REMARK  221  A    between atoms: _533  and  _534
REMARK  222  A    between atoms: _536  and  _538
REMARK  223  A    between atoms: _538  and  _539
REMARK  224  A    between atoms: _538  and  _541
REMARK  225  A    between atoms: _541  and  _542
REMARK  226  A    between atoms: _545  and  _547
REMARK  227  A    between atoms: _547  and  _548
REMARK  228  A    between atoms: _547  and  _550
REMARK  229  A    between atoms: _550  and  _551
REMARK  230  A    between atoms: _557  and  _559
REMARK  231  A    between atoms: _559  and  _560
REMARK  232  A    between atoms: _559  and  _562
REMARK  233  A    between atoms: _562  and  _563
REMARK  234  A    between atoms: _566  and  _568
REMARK  235  A    between atoms: _568  and  _569
REMARK  236  A    between atoms: _572  and  _574
REMARK  237  A    between atoms: _574  and  _575
REMARK  238  A    between atoms: _574  and  _577
REMARK  239  A    between atoms: _577  and  _578
REMARK                            x       y       z     vdW  Elec       q    Type
REMARK                         _______ _______ _______ _____ _____    ______ ____
ROOT
ATOM      1  CB  ASN A   1      32.345  18.343   1.470  0.00  0.00    +0.110 C 
ENDROOT
BRANCH   1   2
ATOM      2  CG  ASN A   1      32.479  19.250   2.676  0.00  0.00    +0.221 C 
ATOM      3  ND2 ASN A   1      31.485  19.215   3.549  0.00  0.00    -0.329 N 
ATOM      4 HD21 ASN A   1      31.523  19.806   4.404  0.00  0.00    +0.145 HD
ATOM      5 HD22 ASN A   1      30.666  18.596   3.380  0.00  0.00    +0.145 HD
ATOM      6  OD1 ASN A   1      33.472  19.966   2.829  0.00  0.00    -0.275 OA
ENDBRANCH   1   2
BRANCH   1   7
ATOM      7  CA  ASN A   1      33.142  18.845   0.264  0.00  0.00    +0.142 C 
BRANCH   7   8
ATOM      8  N   ASN A   1      32.533  20.037  -0.292  0.00  0.00    -0.239 NA
ATOM      9  H   ASN A   1      31.537  20.245  -0.078  0.00  0.00    +0.142 HD
ENDBRANCH   7   8
BRANCH   7  10
ATOM     10  C   ASN A   1      33.219  17.760  -0.793  0.00  0.00    +0.225 C 
ATOM     11  O   ASN A   1      32.248  17.504  -1.484  0.00  0.00    -0.287 OA
ENDBRANCH   7  10
ENDBRANCH   1   7
TORSDOF 4
REMARK  Name = ../refined-set-2016/2w8w/2w8w_pocket.pdb
REMARK  239 active torsions:
REMARK  status: ('A' for Active; 'I' for Inactive)
REMARK    1  A    between atoms: _1  and  _3
REMARK    2  A    between atoms: _3  and  _4
REMARK    3  A    between atoms: _6  and  _8
REMARK    4  A    between atoms: _8  and  _9
REMARK    5  A    between atoms: _8  and  _11
REMARK    6  A    between atoms: _11  and  _12
REMARK    7  A    between atoms: _17  and  _18
REMARK    8  A    between atoms: _20  and  _22
REMARK    9  A    between atoms: _22  and  _23
REMARK   10  A    between atoms: _22  and  _25
REMARK   11  A    between atoms: _25  and  _26
REMARK   12  A    between atoms: _31  and  _32
REMARK   13  A    between atoms: _34  and  _36
REMARK   14  A    between atoms: _36  and  _37
REMARK   15  A    between atoms: _36  and  _39
REMARK   16  A    between atoms: _39  and  _40
REMARK   17  A    between atoms: _42  and  _44
REMARK   18  A    between atoms: _44  and  _45
REMARK   19  A    between atoms: _44  and  _47
REMARK   20  A    between atoms: _47  and  _48
REMARK   21  A    between atoms: _51  and  _53
REMARK   22  A    between atoms: _53  and  _54
REMARK   23  A    between atoms: _56  and  _58
REMARK   24  A    between atoms: _58  and  _59
REMARK   25  A    between atoms: _58  and  _61
REMARK   26  A    between atoms: _61  and  _62
REMARK   27  A    between atoms: _67  and  _68
REMARK   28  A    between atoms: _70  and  _72
REMARK   29  A    between atoms: _72  and  _73
REMARK   30  A    between atoms: _72  and  _75
REMARK   31  A    between atoms: _75  and  _76
REMARK   32  A    between atoms: _76  and  _77
REMARK   33  A    between atoms: _79  and  _81
REMARK   34  A    between atoms: _81  and  _82
REMARK   35  A    between atoms: _85  and  _87
REMARK   36  A    between atoms: _87  and  _88
REMARK   37  A    between atoms: _87  and  _90
REMARK   38  A    between atoms: _90  and  _91
REMARK   39  A    between atoms: _96  and  _98
REMARK   40  A    between atoms: _98  and  _99
REMARK   41  A    between atoms: _98  and  _101
REMARK   42  A    between atoms: _101  and  _102
REMARK   43  A    between atoms: _105  and  _107
REMARK   44  A    between atoms: _107  and  _108
REMARK   45  A    between atoms: _107  and  _110
REMARK   46  A    between atoms: _110  and  _111
REMARK   47  A    between atoms: _114  and  _116
REMARK   48  A    between atoms: _116  and  _117
REMARK   49  A    between atoms: _116  and  _119
REMARK   50  A    between atoms: _119  and  _120
REMARK   51  A    between atoms: _122  and  _124
REMARK   52  A    between atoms: _124  and  _125
REMARK   53  A    between atoms: _124  and  _127
REMARK   54  A    between atoms: _127  and  _128
REMARK   55  A    between atoms: _133  and  _135
REMARK   56  A    between atoms: _135  and  _136
REMARK   57  A    between atoms: _139  and  _141
REMARK   58  A    between atoms: _141  and  _142
REMARK   59  A    between atoms: _141  and  _144
REMARK   60  A    between atoms: _144  and  _145
REMARK   61  A    between atoms: _147  and  _149
REMARK   62  A    between atoms: _149  and  _150
REMARK   63  A    between atoms: _149  and  _152
REMARK   64  A    between atoms: _152  and  _153
REMARK   65  A    between atoms: _156  and  _158
REMARK   66  A    between atoms: _158  and  _159
REMARK   67  A    between atoms: _158  and  _161
REMARK   68  A    between atoms: _161  and  _162
REMARK   69  A    between atoms: _165  and  _167
REMARK   70  A    between atoms: _167  and  _168
REMARK   71  A    between atoms: _167  and  _170
REMARK   72  A    between atoms: _170  and  _171
REMARK   73  A    between atoms: _171  and  _172
REMARK   74  A    between atoms: _175  and  _177
REMARK   75  A    between atoms: _177  and  _178
REMARK   76  A    between atoms: _180  and  _182
REMARK   77  A    between atoms: _182  and  _183
REMARK   78  A    between atoms: _182  and  _185
REMARK   79  A    between atoms: _188  and  _190
REMARK   80  A    between atoms: _190  and  _191
REMARK   81  A    between atoms: _190  and  _193
REMARK   82  A    between atoms: _193  and  _194
REMARK   83  A    between atoms: _199  and  _200
REMARK   84  A    between atoms: _202  and  _204
REMARK   85  A    between atoms: _204  and  _205
REMARK   86  A    between atoms: _204  and  _207
REMARK   87  A    between atoms: _207  and  _208
REMARK   88  A    between atoms: _210  and  _212
REMARK   89  A    between atoms: _212  and  _213
REMARK   90  A    between atoms: _212  and  _215
REMARK   91  A    between atoms: _215  and  _216
REMARK   92  A    between atoms: _216  and  _217
REMARK   93  A    between atoms: _219  and  _221
REMARK   94  A    between atoms: _221  and  _222
REMARK   95  A    between atoms: _221  and  _224
REMARK   96  A    between atoms: _224  and  _225
REMARK   97  A    between atoms: _228  and  _230
REMARK   98  A    between atoms: _230  and  _231
REMARK   99  A    between atoms: _230  and  _233
REMARK  100  A    between atoms: _233  and  _234
REMARK  101  A    between atoms: _234  and  _235
REMARK  102  A    between atoms: _238  and  _240
REMARK  103  A    between atoms: _240  and  _241
REMARK  104  A    between atoms: _244  and  _246
REMARK  105  A    between atoms: _246  and  _247
REMARK  106  A    between atoms: _246  and  _249
REMARK  107  A    between atoms: _249  and  _250
REMARK  108  A    between atoms: _255  and  _257
REMARK  109  A    between atoms: _257  and  _258
REMARK  110  A    between atoms: _257  and  _260
REMARK  111  A    between atoms: _260  and  _261
REMARK  112  A    between atoms: _263  and  _265
REMARK  113  A    between atoms: _265  and  _266
REMARK  114  A    between atoms: _265  and  _268
REMARK  115  A    between atoms: _271  and  _273
REMARK  116  A    between atoms: _273  and  _274
REMARK  117  A    between atoms: _276  and  _278
REMARK  118  A    between atoms: _278  and  _279
REMARK  119  A    between atoms: _278  and  _281
REMARK  120  A    between atoms: _281  and  _282
REMARK  121  A    between atoms: _285  and  _287
REMARK  122  A    between atoms: _287  and  _288
REMARK  123  A    between atoms: _287  and  _290
REMARK  124  A    between atoms: _290  and  _291
REMARK  125  A    between atoms: _297  and  _299
REMARK  126  A    between atoms: _299  and  _300
REMARK  127  A    between atoms: _299  and  _302
REMARK  128  A    between atoms: _302  and  _303
REMARK  129  A    between atoms: _305  and  _307
REMARK  130  A    between atoms: _307  and  _308
REMARK  131  A    between atoms: _307  and  _310
REMARK  132  A    between atoms: _310  and  _311
REMARK  133  A    between atoms: _311  and  _312
REMARK  134  A    between atoms: _312  and  _313
REMARK  135  A    between atoms: _313  and  _314
REMARK  136  A    between atoms: _318  and  _320
REMARK  137  A    between atoms: _320  and  _321
REMARK  138  A    between atoms: _320  and  _323
REMARK  139  A    between atoms: _323  and  _324
REMARK  140  A    between atoms: _327  and  _329
REMARK  141  A    between atoms: _329  and  _330
REMARK  142  A    between atoms: _329  and  _332
REMARK  143  A    between atoms: _335  and  _337
REMARK  144  A    between atoms: _337  and  _338
REMARK  145  A    between atoms: _340  and  _342
REMARK  146  A    between atoms: _342  and  _343
REMARK  147  A    between atoms: _345  and  _347
REMARK  148  A    between atoms: _347  and  _348
REMARK  149  A    between atoms: _347  and  _350
REMARK  150  A    between atoms: _350  and  _351
REMARK  151  A    between atoms: _357  and  _359
REMARK  152  A    between atoms: _359  and  _360
REMARK  153  A    between atoms: _359  and  _362
REMARK  154  A    between atoms: _362  and  _363
REMARK  155  A    between atoms: _366  and  _368
REMARK  156  A    between atoms: _368  and  _369
REMARK  157  A    between atoms: _368  and  _371
REMARK  158  A    between atoms: _371  and  _372
REMARK  159  A    between atoms: _377  and  _379
REMARK  160  A    between atoms: _379  and  _380
REMARK  161  A    between atoms: _379  and  _382
REMARK  162  A    between atoms: _382  and  _383
REMARK  163  A    between atoms: _383  and  _384
REMARK  164  A    between atoms: _384  and  _385
REMARK  165  A    between atoms: _394  and  _396
REMARK  166  A    between atoms: _396  and  _397
REMARK  167  A    between atoms: _396  and  _399
REMARK  168  A    between atoms: _399  and  _400
REMARK  169  A    between atoms: _403  and  _405
REMARK  170  A    between atoms: _405  and  _406
REMARK  171  A    between atoms: _405  and  _408
REMARK  172  A    between atoms: _408  and  _409
REMARK  173  A    between atoms: _414  and  _415
REMARK  174  A    between atoms: _417  and  _419
REMARK  175  A    between atoms: _419  and  _420
REMARK  176  A    between atoms: _422  and  _424
REMARK  177  A    between atoms: _424  and  _425
REMARK  178  A    between atoms: _424  and  _427
REMARK  179  A    between atoms: _427  and  _428
REMARK  180  A    between atoms: _430  and  _432
REMARK  181  A    between atoms: _432  and  _433
REMARK  182  A    between atoms: _432  and  _435
REMARK  183  A    between atoms: _435  and  _436
REMARK  184  A    between atoms: _436  and  _437
REMARK  185  A    between atoms: _437  and  _438
REMARK  186  A    between atoms: _447  and  _449
REMARK  187  A    between atoms: _449  and  _450
REMARK  188  A    between atoms: _449  and  _452
REMARK  189  A    between atoms: _452  and  _453
REMARK  190  A    between atoms: _453  and  _454
REMARK  191  A    between atoms: _456  and  _458
REMARK  192  A    between atoms: _458  and  _459
REMARK  193  A    between atoms: _458  and  _461
REMARK  194  A    between atoms: _461  and  _462
REMARK  195  A    between atoms: _465  and  _467
REMARK  196  A    between atoms: _467  and  _468
REMARK  197  A    between atoms: _467  and  _470
REMARK  198  A    between atoms: _470  and  _471
REMARK  199  A    between atoms: _476  and  _478
REMARK  200  A    between atoms: _478  and  _479
REMARK  201  A    between atoms: _481  and  _483
REMARK  202  A    between atoms: _483  and  _484
REMARK  203  A    between atoms: _483  and  _486
REMARK  204  A    between atoms: _486  and  _487
REMARK  205  A    between atoms: _489  and  _491
REMARK  206  A    between atoms: _491  and  _492
REMARK  207  A    between atoms: _491  and  _494
REMARK  208  A    between atoms: _494  and  _495
REMARK  209  A    between atoms: _495  and  _496
REMARK  210  A    between atoms: _498  and  _500
REMARK  211  A    between atoms: _500  and  _501
REMARK  212  A    between atoms: _500  and  _503
REMARK  213  A    between atoms: _503  and  _504
REMARK  214  A    between atoms: _504  and  _505
REMARK  215  A    between atoms: _505  and  _506
REMARK  216  A    between atoms: _516  and  _517
REMARK  217  A    between atoms: _522  and  _524
REMARK  218  A    between atoms: _524  and  _525
REMARK  219  A    between atoms: _524  and  _527
REMARK  220  A    between atoms: _527  and  _528
REMARK  221  A    between atoms: _533  and  _534
REMARK  222  A    between atoms: _536  and  _538
REMARK  223  A    between atoms: _538  and  _539
REMARK  224  A    between atoms: _538  and  _541
REMARK  225  A    between atoms: _541  and  _542
REMARK  226  A    between atoms: _545  and  _547
REMARK  227  A    between atoms: _547  and  _548
REMARK  228  A    between atoms: _547  and  _550
REMARK  229  A    between atoms: _550  and  _551
REMARK  230  A    between atoms: _557  and  _559
REMARK  231  A    between atoms: _559  and  _560
REMARK  232  A    between atoms: _559  and  _562
REMARK  233  A    between atoms: _562  and  _563
REMARK  234  A    between atoms: _566  and  _568
REMARK  235  A    between atoms: _568  and  _569
REMARK  236  A    between atoms: _572  and  _574
REMARK  237  A    between atoms: _574  and  _575
REMARK  238  A    between atoms: _574  and  _577
REMARK  239  A    between atoms: _577  and  _578
REMARK                            x       y       z     vdW  Elec       q    Type
REMARK                         _______ _______ _______ _____ _____    ______ ____
ROOT
ATOM      1  NE  ARG A   1      28.527  14.561   2.624  0.00  0.00    -0.265 N 
ATOM      2  CZ  ARG A   1      28.842  15.447   3.569  0.00  0.00    +0.342 C 
ATOM      3  NH2 ARG A   1      28.088  15.535   4.657  0.00  0.00    -0.292 N 
ATOM      4 HH21 ARG A   1      28.325  16.223   5.400  0.00  0.00    +0.255 HD
ATOM      5 HH22 ARG A   1      27.260  14.916   4.767  0.00  0.00    +0.255 HD
ATOM      6  NH1 ARG A   1      29.902  16.246   3.450  0.00  0.00    -0.292 N 
ATOM      7 HH11 ARG A   1      30.126  16.929   4.202  0.00  0.00    +0.255 HD
ATOM      8 HH12 ARG A   1      30.506  16.187   2.605  0.00  0.00    +0.255 HD
ATOM      9  HE  ARG A   1      27.689  13.966   2.785  0.00  0.00    +0.259 HD
ENDROOT
BRANCH   1  10
ATOM     10  CD  ARG A   1      29.263  14.360   1.384  0.00  0.00    +0.174 C 
BRANCH  10  11
ATOM     11  CG  ARG A   1      28.689  15.192   0.258  0.00  0.00    +0.045 C 
BRANCH  11  12
ATOM     12  CB  ARG A   1      28.842  16.692   0.485  0.00  0.00    +0.029 C 
BRANCH  12  13
ATOM     13  CA  ARG A   1      28.596  17.486  -0.790  0.00  0.00    +0.133 C 
BRANCH  13  14
ATOM     14  N   ARG A   1      29.603  17.166  -1.774  0.00  0.00    -0.239 NA
ATOM     15  H   ARG A   1      30.608  17.263  -1.526  0.00  0.00    +0.142 HD
ENDBRANCH  13  14
BRANCH  13  16
ATOM     16  C   ARG A   1      28.576  18.983  -0.547  0.00  0.00    +0.224 C 
ATOM     17  O   ARG A   1      29.606  19.594  -0.223  0.00  0.00    -0.287 OA
ENDBRANCH  13  16
ENDBRANCH  12  13
ENDBRANCH  11  12
ENDBRANCH  10  11
ENDBRANCH   1  10
TORSDOF 6
REMARK  Name = ../refined-set-2016/2w8w/2w8w_pocket.pdb
REMARK  239 active torsions:
REMARK  status: ('A' for Active; 'I' for Inactive)
REMARK    1  A    between atoms: _1  and  _3
REMARK    2  A    between atoms: _3  and  _4
REMARK    3  A    between atoms: _6  and  _8
REMARK    4  A    between atoms: _8  and  _9
REMARK    5  A    between atoms: _8  and  _11
REMARK    6  A    between atoms: _11  and  _12
REMARK    7  A    between atoms: _17  and  _18
REMARK    8  A    between atoms: _20  and  _22
REMARK    9  A    between atoms: _22  and  _23
REMARK   10  A    between atoms: _22  and  _25
REMARK   11  A    between atoms: _25  and  _26
REMARK   12  A    between atoms: _31  and  _32
REMARK   13  A    between atoms: _34  and  _36
REMARK   14  A    between atoms: _36  and  _37
REMARK   15  A    between atoms: _36  and  _39
REMARK   16  A    between atoms: _39  and  _40
REMARK   17  A    between atoms: _42  and  _44
REMARK   18  A    between atoms: _44  and  _45
REMARK   19  A    between atoms: _44  and  _47
REMARK   20  A    between atoms: _47  and  _48
REMARK   21  A    between atoms: _51  and  _53
REMARK   22  A    between atoms: _53  and  _54
REMARK   23  A    between atoms: _56  and  _58
REMARK   24  A    between atoms: _58  and  _59
REMARK   25  A    between atoms: _58  and  _61
REMARK   26  A    between atoms: _61  and  _62
REMARK   27  A    between atoms: _67  and  _68
REMARK   28  A    between atoms: _70  and  _72
REMARK   29  A    between atoms: _72  and  _73
REMARK   30  A    between atoms: _72  and  _75
REMARK   31  A    between atoms: _75  and  _76
REMARK   32  A    between atoms: _76  and  _77
REMARK   33  A    between atoms: _79  and  _81
REMARK   34  A    between atoms: _81  and  _82
REMARK   35  A    between atoms: _85  and  _87
REMARK   36  A    between atoms: _87  and  _88
REMARK   37  A    between atoms: _87  and  _90
REMARK   38  A    between atoms: _90  and  _91
REMARK   39  A    between atoms: _96  and  _98
REMARK   40  A    between atoms: _98  and  _99
REMARK   41  A    between atoms: _98  and  _101
REMARK   42  A    between atoms: _101  and  _102
REMARK   43  A    between atoms: _105  and  _107
REMARK   44  A    between atoms: _107  and  _108
REMARK   45  A    between atoms: _107  and  _110
REMARK   46  A    between atoms: _110  and  _111
REMARK   47  A    between atoms: _114  and  _116
REMARK   48  A    between atoms: _116  and  _117
REMARK   49  A    between atoms: _116  and  _119
REMARK   50  A    between atoms: _119  and  _120
REMARK   51  A    between atoms: _122  and  _124
REMARK   52  A    between atoms: _124  and  _125
REMARK   53  A    between atoms: _124  and  _127
REMARK   54  A    between atoms: _127  and  _128
REMARK   55  A    between atoms: _133  and  _135
REMARK   56  A    between atoms: _135  and  _136
REMARK   57  A    between atoms: _139  and  _141
REMARK   58  A    between atoms: _141  and  _142
REMARK   59  A    between atoms: _141  and  _144
REMARK   60  A    between atoms: _144  and  _145
REMARK   61  A    between atoms: _147  and  _149
REMARK   62  A    between atoms: _149  and  _150
REMARK   63  A    between atoms: _149  and  _152
REMARK   64  A    between atoms: _152  and  _153
REMARK   65  A    between atoms: _156  and  _158
REMARK   66  A    between atoms: _158  and  _159
REMARK   67  A    between atoms: _158  and  _161
REMARK   68  A    between atoms: _161  and  _162
REMARK   69  A    between atoms: _165  and  _167
REMARK   70  A    between atoms: _167  and  _168
REMARK   71  A    between atoms: _167  and  _170
REMARK   72  A    between atoms: _170  and  _171
REMARK   73  A    between atoms: _171  and  _172
REMARK   74  A    between atoms: _175  and  _177
REMARK   75  A    between atoms: _177  and  _178
REMARK   76  A    between atoms: _180  and  _182
REMARK   77  A    between atoms: _182  and  _183
REMARK   78  A    between atoms: _182  and  _185
REMARK   79  A    between atoms: _188  and  _190
REMARK   80  A    between atoms: _190  and  _191
REMARK   81  A    between atoms: _190  and  _193
REMARK   82  A    between atoms: _193  and  _194
REMARK   83  A    between atoms: _199  and  _200
REMARK   84  A    between atoms: _202  and  _204
REMARK   85  A    between atoms: _204  and  _205
REMARK   86  A    between atoms: _204  and  _207
REMARK   87  A    between atoms: _207  and  _208
REMARK   88  A    between atoms: _210  and  _212
REMARK   89  A    between atoms: _212  and  _213
REMARK   90  A    between atoms: _212  and  _215
REMARK   91  A    between atoms: _215  and  _216
REMARK   92  A    between atoms: _216  and  _217
REMARK   93  A    between atoms: _219  and  _221
REMARK   94  A    between atoms: _221  and  _222
REMARK   95  A    between atoms: _221  and  _224
REMARK   96  A    between atoms: _224  and  _225
REMARK   97  A    between atoms: _228  and  _230
REMARK   98  A    between atoms: _230  and  _231
REMARK   99  A    between atoms: _230  and  _233
REMARK  100  A    between atoms: _233  and  _234
REMARK  101  A    between atoms: _234  and  _235
REMARK  102  A    between atoms: _238  and  _240
REMARK  103  A    between atoms: _240  and  _241
REMARK  104  A    between atoms: _244  and  _246
REMARK  105  A    between atoms: _246  and  _247
REMARK  106  A    between atoms: _246  and  _249
REMARK  107  A    between atoms: _249  and  _250
REMARK  108  A    between atoms: _255  and  _257
REMARK  109  A    between atoms: _257  and  _258
REMARK  110  A    between atoms: _257  and  _260
REMARK  111  A    between atoms: _260  and  _261
REMARK  112  A    between atoms: _263  and  _265
REMARK  113  A    between atoms: _265  and  _266
REMARK  114  A    between atoms: _265  and  _268
REMARK  115  A    between atoms: _271  and  _273
REMARK  116  A    between atoms: _273  and  _274
REMARK  117  A    between atoms: _276  and  _278
REMARK  118  A    between atoms: _278  and  _279
REMARK  119  A    between atoms: _278  and  _281
REMARK  120  A    between atoms: _281  and  _282
REMARK  121  A    between atoms: _285  and  _287
REMARK  122  A    between atoms: _287  and  _288
REMARK  123  A    between atoms: _287  and  _290
REMARK  124  A    between atoms: _290  and  _291
REMARK  125  A    between atoms: _297  and  _299
REMARK  126  A    between atoms: _299  and  _300
REMARK  127  A    between atoms: _299  and  _302
REMARK  128  A    between atoms: _302  and  _303
REMARK  129  A    between atoms: _305  and  _307
REMARK  130  A    between atoms: _307  and  _308
REMARK  131  A    between atoms: _307  and  _310
REMARK  132  A    between atoms: _310  and  _311
REMARK  133  A    between atoms: _311  and  _312
REMARK  134  A    between atoms: _312  and  _313
REMARK  135  A    between atoms: _313  and  _314
REMARK  136  A    between atoms: _318  and  _320
REMARK  137  A    between atoms: _320  and  _321
REMARK  138  A    between atoms: _320  and  _323
REMARK  139  A    between atoms: _323  and  _324
REMARK  140  A    between atoms: _327  and  _329
REMARK  141  A    between atoms: _329  and  _330
REMARK  142  A    between atoms: _329  and  _332
REMARK  143  A    between atoms: _335  and  _337
REMARK  144  A    between atoms: _337  and  _338
REMARK  145  A    between atoms: _340  and  _342
REMARK  146  A    between atoms: _342  and  _343
REMARK  147  A    between atoms: _345  and  _347
REMARK  148  A    between atoms: _347  and  _348
REMARK  149  A    between atoms: _347  and  _350
REMARK  150  A    between atoms: _350  and  _351
REMARK  151  A    between atoms: _357  and  _359
REMARK  152  A    between atoms: _359  and  _360
REMARK  153  A    between atoms: _359  and  _362
REMARK  154  A    between atoms: _362  and  _363
REMARK  155  A    between atoms: _366  and  _368
REMARK  156  A    between atoms: _368  and  _369
REMARK  157  A    between atoms: _368  and  _371
REMARK  158  A    between atoms: _371  and  _372
REMARK  159  A    between atoms: _377  and  _379
REMARK  160  A    between atoms: _379  and  _380
REMARK  161  A    between atoms: _379  and  _382
REMARK  162  A    between atoms: _382  and  _383
REMARK  163  A    between atoms: _383  and  _384
REMARK  164  A    between atoms: _384  and  _385
REMARK  165  A    between atoms: _394  and  _396
REMARK  166  A    between atoms: _396  and  _397
REMARK  167  A    between atoms: _396  and  _399
REMARK  168  A    between atoms: _399  and  _400
REMARK  169  A    between atoms: _403  and  _405
REMARK  170  A    between atoms: _405  and  _406
REMARK  171  A    between atoms: _405  and  _408
REMARK  172  A    between atoms: _408  and  _409
REMARK  173  A    between atoms: _414  and  _415
REMARK  174  A    between atoms: _417  and  _419
REMARK  175  A    between atoms: _419  and  _420
REMARK  176  A    between atoms: _422  and  _424
REMARK  177  A    between atoms: _424  and  _425
REMARK  178  A    between atoms: _424  and  _427
REMARK  179  A    between atoms: _427  and  _428
REMARK  180  A    between atoms: _430  and  _432
REMARK  181  A    between atoms: _432  and  _433
REMARK  182  A    between atoms: _432  and  _435
REMARK  183  A    between atoms: _435  and  _436
REMARK  184  A    between atoms: _436  and  _437
REMARK  185  A    between atoms: _437  and  _438
REMARK  186  A    between atoms: _447  and  _449
REMARK  187  A    between atoms: _449  and  _450
REMARK  188  A    between atoms: _449  and  _452
REMARK  189  A    between atoms: _452  and  _453
REMARK  190  A    between atoms: _453  and  _454
REMARK  191  A    between atoms: _456  and  _458
REMARK  192  A    between atoms: _458  and  _459
REMARK  193  A    between atoms: _458  and  _461
REMARK  194  A    between atoms: _461  and  _462
REMARK  195  A    between atoms: _465  and  _467
REMARK  196  A    between atoms: _467  and  _468
REMARK  197  A    between atoms: _467  and  _470
REMARK  198  A    between atoms: _470  and  _471
REMARK  199  A    between atoms: _476  and  _478
REMARK  200  A    between atoms: _478  and  _479
REMARK  201  A    between atoms: _481  and  _483
REMARK  202  A    between atoms: _483  and  _484
REMARK  203  A    between atoms: _483  and  _486
REMARK  204  A    between atoms: _486  and  _487
REMARK  205  A    between atoms: _489  and  _491
REMARK  206  A    between atoms: _491  and  _492
REMARK  207  A    between atoms: _491  and  _494
REMARK  208  A    between atoms: _494  and  _495
REMARK  209  A    between atoms: _495  and  _496
REMARK  210  A    between atoms: _498  and  _500
REMARK  211  A    between atoms: _500  and  _501
REMARK  212  A    between atoms: _500  and  _503
REMARK  213  A    between atoms: _503  and  _504
REMARK  214  A    between atoms: _504  and  _505
REMARK  215  A    between atoms: _505  and  _506
REMARK  216  A    between atoms: _516  and  _517
REMARK  217  A    between atoms: _522  and  _524
REMARK  218  A    between atoms: _524  and  _525
REMARK  219  A    between atoms: _524  and  _527
REMARK  220  A    between atoms: _527  and  _528
REMARK  221  A    between atoms: _533  and  _534
REMARK  222  A    between atoms: _536  and  _538
REMARK  223  A    between atoms: _538  and  _539
REMARK  224  A    between atoms: _538  and  _541
REMARK  225  A    between atoms: _541  and  _542
REMARK  226  A    between atoms: _545  and  _547
REMARK  227  A    between atoms: _547  and  _548
REMARK  228  A    between atoms: _547  and  _550
REMARK  229  A    between atoms: _550  and  _551
REMARK  230  A    between atoms: _557  and  _559
REMARK  231  A    between atoms: _559  and  _560
REMARK  232  A    between atoms: _559  and  _562
REMARK  233  A    between atoms: _562  and  _563
REMARK  234  A    between atoms: _566  and  _568
REMARK  235  A    between atoms: _568  and  _569
REMARK  236  A    between atoms: _572  and  _574
REMARK  237  A    between atoms: _574  and  _575
REMARK  238  A    between atoms: _574  and  _577
REMARK  239  A    between atoms: _577  and  _578
REMARK                            x       y       z     vdW  Elec       q    Type
REMARK                         _______ _______ _______ _____ _____    ______ ____
ROOT
ATOM      1  CA  ARG A   5      40.005  19.765   9.607  0.00  0.00    +0.149 C 
ENDROOT
BRANCH   1   3
ATOM      2  C   SER A   4      37.551  19.477   9.644  0.00  0.00    +0.243 C 
ATOM      3  N   ARG A   5      38.738  19.365  10.240  0.00  0.00    -0.297 N 
ATOM      4  H   ARG A   5      38.771  18.974  11.203  0.00  0.00    +0.150 HD
ATOM      5  O   SER A   4      37.382  20.022   8.557  0.00  0.00    -0.273 OA
BRANCH   2   6
ATOM      6  CA  SER A   4      36.373  18.851  10.386  0.00  0.00    +0.178 C 
BRANCH   6   9
ATOM      7  C   GLY A   3      34.968  20.789  10.898  0.00  0.00    +0.243 C 
ATOM      8  O   GLY A   3      35.865  21.371  11.501  0.00  0.00    -0.273 OA
ATOM      9  N   SER A   4      35.145  19.631  10.271  0.00  0.00    -0.295 N 
ATOM     10  H   SER A   4      34.376  19.265   9.673  0.00  0.00    +0.150 HD
BRANCH   7  11
ATOM     11  CA  GLY A   3      33.561  21.364  10.840  0.00  0.00    +0.176 C 
BRANCH  11  13
ATOM     12  C   TYR A   2      33.507  23.471   9.603  0.00  0.00    +0.241 C 
ATOM     13  N   GLY A   3      33.522  22.821  10.768  0.00  0.00    -0.295 N 
ATOM     14  H   GLY A   3      33.505  23.369  11.652  0.00  0.00    +0.150 HD
ATOM     15  O   TYR A   2      33.554  22.899   8.503  0.00  0.00    -0.273 OA
BRANCH  12  16
ATOM     16  CA  TYR A   2      33.426  24.998   9.703  0.00  0.00    +0.153 C 
BRANCH  16  19
ATOM     17  C   THR A   1      34.185  26.034  11.767  0.00  0.00    +0.241 C 
ATOM     18  O   THR A   1      33.090  25.907  12.305  0.00  0.00    -0.274 OA
ATOM     19  N   TYR A   2      34.462  25.547  10.566  0.00  0.00    -0.297 N 
ATOM     20  H   TYR A   2      35.446  25.557  10.231  0.00  0.00    +0.150 HD
BRANCH  17  21
ATOM     21  CA  THR A   1      35.310  26.743  12.480  0.00  0.00    +0.172 C 
BRANCH  21  22
ATOM     22  N   THR A   1      34.813  27.213  13.763  0.00  0.00    -0.236 NA
ATOM     23  H   THR A   1      34.902  26.594  14.594  0.00  0.00    +0.142 HD
ENDBRANCH  21  22
BRANCH  21  24
ATOM     24  CB  THR A   1      36.447  25.767  12.662  0.00  0.00    +0.135 C 
ATOM     25  CG2 THR A   1      37.577  26.445  13.398  0.00  0.00    +0.034 C 
BRANCH  24  26
ATOM     26  OG1 THR A   1      35.966  24.632  13.403  0.00  0.00    -0.383 OA
ATOM     27  HG1 THR A   1      36.704  23.984  13.529  0.00  0.00    +0.210 HD
ENDBRANCH  24  26
ENDBRANCH  21  24
ENDBRANCH  17  21
ENDBRANCH  16  19
BRANCH  16  28
ATOM     28  CB  TYR A   2      33.536  25.676   8.339  0.00  0.00    +0.055 C 
BRANCH  28  29
ATOM     29  CG  TYR A   2      33.323  27.178   8.409  0.00  0.00    -0.020 A 
ATOM     30  CD2 TYR A   2      32.387  27.729   9.292  0.00  0.00    -0.001 A 
ATOM     31  CE2 TYR A   2      32.186  29.088   9.367  0.00  0.00    +0.036 A 
ATOM     32  CZ  TYR A   2      32.911  29.933   8.555  0.00  0.00    +0.134 A 
ATOM     33  CE1 TYR A   2      33.848  29.424   7.665  0.00  0.00    +0.036 A 
ATOM     34  CD1 TYR A   2      34.046  28.048   7.596  0.00  0.00    -0.001 A 
BRANCH  32  35
ATOM     35  OH  TYR A   2      32.680  31.285   8.653  0.00  0.00    -0.506 OA
ATOM     36  HH  TYR A   2      33.517  31.743   8.916  0.00  0.00    +0.292 HD
ENDBRANCH  32  35
ENDBRANCH  28  29
ENDBRANCH  16  28
ENDBRANCH  12  16
ENDBRANCH  11  13
ENDBRANCH   7  11
ENDBRANCH   6   9
BRANCH   6  37
ATOM     37  CB  SER A   4      36.135  17.432   9.853  0.00  0.00    +0.166 C 
BRANCH  37  38
ATOM     38  OG  SER A   4      37.353  16.794   9.515  0.00  0.00    -0.380 OA
ATOM     39  H   SER A   4      37.164  15.883   9.176  0.00  0.00    +0.211 HD
ENDBRANCH  37  38
ENDBRANCH   6  37
ENDBRANCH   2   6
ENDBRANCH   1   3
BRANCH   1  40
ATOM     40  C   ARG A   5      40.094  19.257   8.167  0.00  0.00    +0.241 C 
ATOM     41  N   MET A   6      39.722  17.991   7.967  0.00  0.00    -0.297 N 
ATOM     42  H   MET A   6      39.350  17.447   8.771  0.00  0.00    +0.150 HD
ATOM     43  O   ARG A   5      40.459  20.011   7.259  0.00  0.00    -0.273 OA
BRANCH  41  44
ATOM     44  CA  MET A   6      39.818  17.338   6.658  0.00  0.00    +0.149 C 
BRANCH  44  45
ATOM     45  C   MET A   6      38.772  17.834   5.649  0.00  0.00    +0.241 C 
ATOM     46  N   LEU A   7      37.855  18.693   6.090  0.00  0.00    -0.297 N 
ATOM     47  H   LEU A   7      37.812  18.901   7.108  0.00  0.00    +0.150 HD
ATOM     48  O   MET A   6      38.794  17.427   4.494  0.00  0.00    -0.273 OA
BRANCH  46  49
ATOM     49  CA  LEU A   7      36.909  19.352   5.197  0.00  0.00    +0.149 C 
BRANCH  49  50
ATOM     50  C   LEU A   7      37.060  20.897   5.315  0.00  0.00    +0.241 C 
ATOM     51  N   ASN A   8      35.968  21.648   5.452  0.00  0.00    -0.297 N 
ATOM     52  H   ASN A   8      35.047  21.194   5.617  0.00  0.00    +0.150 HD
ATOM     53  O   LEU A   7      38.187  21.403   5.264  0.00  0.00    -0.273 OA
BRANCH  51  54
ATOM     54  CA  ASN A   8      36.056  23.110   5.372  0.00  0.00    +0.158 C 
BRANCH  54  55
ATOM     55  C   ASN A   8      36.965  23.603   6.490  0.00  0.00    +0.241 C 
ATOM     56  N   GLY A   9      36.592  23.264   7.721  0.00  0.00    -0.296 N 
ATOM     57  H   GLY A   9      35.575  23.155   7.909  0.00  0.00    +0.150 HD
ATOM     58  O   ASN A   8      37.963  24.271   6.234  0.00  0.00    -0.273 OA
BRANCH  56  59
ATOM     59  CA  GLY A   9      37.527  23.034   8.832  0.00  0.00    +0.163 C 
BRANCH  59  60
ATOM     60  C   GLY A   9      38.680  23.951   9.186  0.00  0.00    +0.229 C 
ATOM     61  O   GLY A   9      38.626  24.644  10.198  0.00  0.00    -0.286 OA
ENDBRANCH  59  60
ENDBRANCH  56  59
ENDBRANCH  54  55
BRANCH  54  62
ATOM     62  CB  ASN A   8      34.666  23.764   5.411  0.00  0.00    +0.114 C 
BRANCH  62  63
ATOM     63  CG  ASN A   8      34.547  24.961   4.461  0.00  0.00    +0.222 C 
ATOM     64  OD1 ASN A   8      35.365  25.889   4.495  0.00  0.00    -0.275 OA
ATOM     65  ND2 ASN A   8      33.526  24.935   3.607  0.00  0.00    -0.329 N 
ATOM     66 HD21 ASN A   8      32.863  24.134   3.614  0.00  0.00    +0.145 HD
ATOM     67 HD22 ASN A   8      33.392  25.716   2.933  0.00  0.00    +0.145 HD
ENDBRANCH  62  63
ENDBRANCH  54  62
ENDBRANCH  51  54
ENDBRANCH  49  50
BRANCH  49  68
ATOM     68  CB  LEU A   7      35.488  18.837   5.471  0.00  0.00    +0.029 C 
BRANCH  68  69
ATOM     69  CG  LEU A   7      35.331  17.307   5.394  0.00  0.00    +0.002 C 
ATOM     70  CD2 LEU A   7      33.915  16.873   5.730  0.00  0.00    +0.000 C 
ATOM     71  CD1 LEU A   7      35.725  16.765   4.026  0.00  0.00    +0.000 C 
ENDBRANCH  68  69
ENDBRANCH  49  68
ENDBRANCH  46  49
ENDBRANCH  44  45
BRANCH  44  72
ATOM     72  CB  MET A   6      39.699  15.809   6.802  0.00  0.00    +0.041 C 
BRANCH  72  73
ATOM     73  CG  MET A   6      40.654  15.183   7.822  0.00  0.00    +0.060 C 
BRANCH  73  74
ATOM     74  SD  MET A   6      42.401  15.431   7.443  0.00  0.00    -0.139 S 
ATOM     75  CE  MET A   6      42.773  13.901   6.600  0.00  0.00    +0.069 C 
ENDBRANCH  73  74
ENDBRANCH  72  73
ENDBRANCH  44  72
ENDBRANCH  41  44
ENDBRANCH   1  40
BRANCH   1  76
ATOM     76  CB  ARG A   5      41.200  19.208  10.395  0.00  0.00    +0.033 C 
BRANCH  76  77
ATOM     77  CG  ARG A   5      41.461  19.863  11.753  0.00  0.00    +0.045 C 
BRANCH  77  78
ATOM     78  CD  ARG A   5      42.009  21.280  11.627  0.00  0.00    +0.174 C 
BRANCH  78  79
ATOM     79  NE  ARG A   5      43.255  21.335  10.858  0.00  0.00    -0.265 N 
ATOM     80  CZ  ARG A   5      44.474  21.134  11.356  0.00  0.00    +0.342 C 
ATOM     81  NH2 ARG A   5      44.646  20.850  12.644  0.00  0.00    -0.292 N 
ATOM     82 HH21 ARG A   5      43.823  20.782  13.276  0.00  0.00    +0.255 HD
ATOM     83 HH22 ARG A   5      45.604  20.695  13.019  0.00  0.00    +0.255 HD
ATOM     84  NH1 ARG A   5      45.533  21.215  10.558  0.00  0.00    -0.292 N 
ATOM     85 HH11 ARG A   5      46.487  21.059  10.942  0.00  0.00    +0.255 HD
ATOM     86 HH12 ARG A   5      45.408  21.435   9.549  0.00  0.00    +0.255 HD
ATOM     87  HE  ARG A   5      43.182  21.548   9.843  0.00  0.00    +0.259 HD
ENDBRANCH  78  79
ENDBRANCH  77  78
ENDBRANCH  76  77
ENDBRANCH   1  76
TORSDOF 36
REMARK  Name = ../refined-set-2016/2w8w/2w8w_pocket.pdb
REMARK  239 active torsions:
REMARK  status: ('A' for Active; 'I' for Inactive)
REMARK    1  A    between atoms: _1  and  _3
REMARK    2  A    between atoms: _3  and  _4
REMARK    3  A    between atoms: _6  and  _8
REMARK    4  A    between atoms: _8  and  _9
REMARK    5  A    between atoms: _8  and  _11
REMARK    6  A    between atoms: _11  and  _12
REMARK    7  A    between atoms: _17  and  _18
REMARK    8  A    between atoms: _20  and  _22
REMARK    9  A    between atoms: _22  and  _23
REMARK   10  A    between atoms: _22  and  _25
REMARK   11  A    between atoms: _25  and  _26
REMARK   12  A    between atoms: _31  and  _32
REMARK   13  A    between atoms: _34  and  _36
REMARK   14  A    between atoms: _36  and  _37
REMARK   15  A    between atoms: _36  and  _39
REMARK   16  A    between atoms: _39  and  _40
REMARK   17  A    between atoms: _42  and  _44
REMARK   18  A    between atoms: _44  and  _45
REMARK   19  A    between atoms: _44  and  _47
REMARK   20  A    between atoms: _47  and  _48
REMARK   21  A    between atoms: _51  and  _53
REMARK   22  A    between atoms: _53  and  _54
REMARK   23  A    between atoms: _56  and  _58
REMARK   24  A    between atoms: _58  and  _59
REMARK   25  A    between atoms: _58  and  _61
REMARK   26  A    between atoms: _61  and  _62
REMARK   27  A    between atoms: _67  and  _68
REMARK   28  A    between atoms: _70  and  _72
REMARK   29  A    between atoms: _72  and  _73
REMARK   30  A    between atoms: _72  and  _75
REMARK   31  A    between atoms: _75  and  _76
REMARK   32  A    between atoms: _76  and  _77
REMARK   33  A    between atoms: _79  and  _81
REMARK   34  A    between atoms: _81  and  _82
REMARK   35  A    between atoms: _85  and  _87
REMARK   36  A    between atoms: _87  and  _88
REMARK   37  A    between atoms: _87  and  _90
REMARK   38  A    between atoms: _90  and  _91
REMARK   39  A    between atoms: _96  and  _98
REMARK   40  A    between atoms: _98  and  _99
REMARK   41  A    between atoms: _98  and  _101
REMARK   42  A    between atoms: _101  and  _102
REMARK   43  A    between atoms: _105  and  _107
REMARK   44  A    between atoms: _107  and  _108
REMARK   45  A    between atoms: _107  and  _110
REMARK   46  A    between atoms: _110  and  _111
REMARK   47  A    between atoms: _114  and  _116
REMARK   48  A    between atoms: _116  and  _117
REMARK   49  A    between atoms: _116  and  _119
REMARK   50  A    between atoms: _119  and  _120
REMARK   51  A    between atoms: _122  and  _124
REMARK   52  A    between atoms: _124  and  _125
REMARK   53  A    between atoms: _124  and  _127
REMARK   54  A    between atoms: _127  and  _128
REMARK   55  A    between atoms: _133  and  _135
REMARK   56  A    between atoms: _135  and  _136
REMARK   57  A    between atoms: _139  and  _141
REMARK   58  A    between atoms: _141  and  _142
REMARK   59  A    between atoms: _141  and  _144
REMARK   60  A    between atoms: _144  and  _145
REMARK   61  A    between atoms: _147  and  _149
REMARK   62  A    between atoms: _149  and  _150
REMARK   63  A    between atoms: _149  and  _152
REMARK   64  A    between atoms: _152  and  _153
REMARK   65  A    between atoms: _156  and  _158
REMARK   66  A    between atoms: _158  and  _159
REMARK   67  A    between atoms: _158  and  _161
REMARK   68  A    between atoms: _161  and  _162
REMARK   69  A    between atoms: _165  and  _167
REMARK   70  A    between atoms: _167  and  _168
REMARK   71  A    between atoms: _167  and  _170
REMARK   72  A    between atoms: _170  and  _171
REMARK   73  A    between atoms: _171  and  _172
REMARK   74  A    between atoms: _175  and  _177
REMARK   75  A    between atoms: _177  and  _178
REMARK   76  A    between atoms: _180  and  _182
REMARK   77  A    between atoms: _182  and  _183
REMARK   78  A    between atoms: _182  and  _185
REMARK   79  A    between atoms: _188  and  _190
REMARK   80  A    between atoms: _190  and  _191
REMARK   81  A    between atoms: _190  and  _193
REMARK   82  A    between atoms: _193  and  _194
REMARK   83  A    between atoms: _199  and  _200
REMARK   84  A    between atoms: _202  and  _204
REMARK   85  A    between atoms: _204  and  _205
REMARK   86  A    between atoms: _204  and  _207
REMARK   87  A    between atoms: _207  and  _208
REMARK   88  A    between atoms: _210  and  _212
REMARK   89  A    between atoms: _212  and  _213
REMARK   90  A    between atoms: _212  and  _215
REMARK   91  A    between atoms: _215  and  _216
REMARK   92  A    between atoms: _216  and  _217
REMARK   93  A    between atoms: _219  and  _221
REMARK   94  A    between atoms: _221  and  _222
REMARK   95  A    between atoms: _221  and  _224
REMARK   96  A    between atoms: _224  and  _225
REMARK   97  A    between atoms: _228  and  _230
REMARK   98  A    between atoms: _230  and  _231
REMARK   99  A    between atoms: _230  and  _233
REMARK  100  A    between atoms: _233  and  _234
REMARK  101  A    between atoms: _234  and  _235
REMARK  102  A    between atoms: _238  and  _240
REMARK  103  A    between atoms: _240  and  _241
REMARK  104  A    between atoms: _244  and  _246
REMARK  105  A    between atoms: _246  and  _247
REMARK  106  A    between atoms: _246  and  _249
REMARK  107  A    between atoms: _249  and  _250
REMARK  108  A    between atoms: _255  and  _257
REMARK  109  A    between atoms: _257  and  _258
REMARK  110  A    between atoms: _257  and  _260
REMARK  111  A    between atoms: _260  and  _261
REMARK  112  A    between atoms: _263  and  _265
REMARK  113  A    between atoms: _265  and  _266
REMARK  114  A    between atoms: _265  and  _268
REMARK  115  A    between atoms: _271  and  _273
REMARK  116  A    between atoms: _273  and  _274
REMARK  117  A    between atoms: _276  and  _278
REMARK  118  A    between atoms: _278  and  _279
REMARK  119  A    between atoms: _278  and  _281
REMARK  120  A    between atoms: _281  and  _282
REMARK  121  A    between atoms: _285  and  _287
REMARK  122  A    between atoms: _287  and  _288
REMARK  123  A    between atoms: _287  and  _290
REMARK  124  A    between atoms: _290  and  _291
REMARK  125  A    between atoms: _297  and  _299
REMARK  126  A    between atoms: _299  and  _300
REMARK  127  A    between atoms: _299  and  _302
REMARK  128  A    between atoms: _302  and  _303
REMARK  129  A    between atoms: _305  and  _307
REMARK  130  A    between atoms: _307  and  _308
REMARK  131  A    between atoms: _307  and  _310
REMARK  132  A    between atoms: _310  and  _311
REMARK  133  A    between atoms: _311  and  _312
REMARK  134  A    between atoms: _312  and  _313
REMARK  135  A    between atoms: _313  and  _314
REMARK  136  A    between atoms: _318  and  _320
REMARK  137  A    between atoms: _320  and  _321
REMARK  138  A    between atoms: _320  and  _323
REMARK  139  A    between atoms: _323  and  _324
REMARK  140  A    between atoms: _327  and  _329
REMARK  141  A    between atoms: _329  and  _330
REMARK  142  A    between atoms: _329  and  _332
REMARK  143  A    between atoms: _335  and  _337
REMARK  144  A    between atoms: _337  and  _338
REMARK  145  A    between atoms: _340  and  _342
REMARK  146  A    between atoms: _342  and  _343
REMARK  147  A    between atoms: _345  and  _347
REMARK  148  A    between atoms: _347  and  _348
REMARK  149  A    between atoms: _347  and  _350
REMARK  150  A    between atoms: _350  and  _351
REMARK  151  A    between atoms: _357  and  _359
REMARK  152  A    between atoms: _359  and  _360
REMARK  153  A    between atoms: _359  and  _362
REMARK  154  A    between atoms: _362  and  _363
REMARK  155  A    between atoms: _366  and  _368
REMARK  156  A    between atoms: _368  and  _369
REMARK  157  A    between atoms: _368  and  _371
REMARK  158  A    between atoms: _371  and  _372
REMARK  159  A    between atoms: _377  and  _379
REMARK  160  A    between atoms: _379  and  _380
REMARK  161  A    between atoms: _379  and  _382
REMARK  162  A    between atoms: _382  and  _383
REMARK  163  A    between atoms: _383  and  _384
REMARK  164  A    between atoms: _384  and  _385
REMARK  165  A    between atoms: _394  and  _396
REMARK  166  A    between atoms: _396  and  _397
REMARK  167  A    between atoms: _396  and  _399
REMARK  168  A    between atoms: _399  and  _400
REMARK  169  A    between atoms: _403  and  _405
REMARK  170  A    between atoms: _405  and  _406
REMARK  171  A    between atoms: _405  and  _408
REMARK  172  A    between atoms: _408  and  _409
REMARK  173  A    between atoms: _414  and  _415
REMARK  174  A    between atoms: _417  and  _419
REMARK  175  A    between atoms: _419  and  _420
REMARK  176  A    between atoms: _422  and  _424
REMARK  177  A    between atoms: _424  and  _425
REMARK  178  A    between atoms: _424  and  _427
REMARK  179  A    between atoms: _427  and  _428
REMARK  180  A    between atoms: _430  and  _432
REMARK  181  A    between atoms: _432  and  _433
REMARK  182  A    between atoms: _432  and  _435
REMARK  183  A    between atoms: _435  and  _436
REMARK  184  A    between atoms: _436  and  _437
REMARK  185  A    between atoms: _437  and  _438
REMARK  186  A    between atoms: _447  and  _449
REMARK  187  A    between atoms: _449  and  _450
REMARK  188  A    between atoms: _449  and  _452
REMARK  189  A    between atoms: _452  and  _453
REMARK  190  A    between atoms: _453  and  _454
REMARK  191  A    between atoms: _456  and  _458
REMARK  192  A    between atoms: _458  and  _459
REMARK  193  A    between atoms: _458  and  _461
REMARK  194  A    between atoms: _461  and  _462
REMARK  195  A    between atoms: _465  and  _467
REMARK  196  A    between atoms: _467  and  _468
REMARK  197  A    between atoms: _467  and  _470
REMARK  198  A    between atoms: _470  and  _471
REMARK  199  A    between atoms: _476  and  _478
REMARK  200  A    between atoms: _478  and  _479
REMARK  201  A    between atoms: _481  and  _483
REMARK  202  A    between atoms: _483  and  _484
REMARK  203  A    between atoms: _483  and  _486
REMARK  204  A    between atoms: _486  and  _487
REMARK  205  A    between atoms: _489  and  _491
REMARK  206  A    between atoms: _491  and  _492
REMARK  207  A    between atoms: _491  and  _494
REMARK  208  A    between atoms: _494  and  _495
REMARK  209  A    between atoms: _495  and  _496
REMARK  210  A    between atoms: _498  and  _500
REMARK  211  A    between atoms: _500  and  _501
REMARK  212  A    between atoms: _500  and  _503
REMARK  213  A    between atoms: _503  and  _504
REMARK  214  A    between atoms: _504  and  _505
REMARK  215  A    between atoms: _505  and  _506
REMARK  216  A    between atoms: _516  and  _517
REMARK  217  A    between atoms: _522  and  _524
REMARK  218  A    between atoms: _524  and  _525
REMARK  219  A    between atoms: _524  and  _527
REMARK  220  A    between atoms: _527  and  _528
REMARK  221  A    between atoms: _533  and  _534
REMARK  222  A    between atoms: _536  and  _538
REMARK  223  A    between atoms: _538  and  _539
REMARK  224  A    between atoms: _538  and  _541
REMARK  225  A    between atoms: _541  and  _542
REMARK  226  A    between atoms: _545  and  _547
REMARK  227  A    between atoms: _547  and  _548
REMARK  228  A    between atoms: _547  and  _550
REMARK  229  A    between atoms: _550  and  _551
REMARK  230  A    between atoms: _557  and  _559
REMARK  231  A    between atoms: _559  and  _560
REMARK  232  A    between atoms: _559  and  _562
REMARK  233  A    between atoms: _562  and  _563
REMARK  234  A    between atoms: _566  and  _568
REMARK  235  A    between atoms: _568  and  _569
REMARK  236  A    between atoms: _572  and  _574
REMARK  237  A    between atoms: _574  and  _575
REMARK  238  A    between atoms: _574  and  _577
REMARK  239  A    between atoms: _577  and  _578
REMARK                            x       y       z     vdW  Elec       q    Type
REMARK                         _______ _______ _______ _____ _____    ______ ____
ROOT
ATOM      1  CA  SER A   1      39.911  19.041  19.831  0.00  0.00    +0.163 C 
ENDROOT
BRANCH   1   2
ATOM      2  N   SER A   1      40.890  18.148  19.233  0.00  0.00    -0.237 NA
ATOM      3  H   SER A   1      40.574  17.259  18.795  0.00  0.00    +0.142 HD
ENDBRANCH   1   2
BRANCH   1   4
ATOM      4  CB  SER A   1      39.850  18.923  21.353  0.00  0.00    +0.227 C 
ATOM      5  OG  SER A   1      39.346  19.827  22.019  0.00  0.00    -0.287 OA
ENDBRANCH   1   4
BRANCH   1   6
ATOM      6  C   SER A   1      38.535  18.844  19.187  0.00  0.00    +0.162 C 
BRANCH   6   7
ATOM      7  O   SER A   1      38.543  19.412  17.880  0.00  0.00    -0.380 OA
ATOM      8  H   SER A   1      37.655  19.286  17.461  0.00  0.00    +0.211 HD
ENDBRANCH   6   7
ENDBRANCH   1   6
TORSDOF 4
REMARK  Name = ../refined-set-2016/2w8w/2w8w_pocket.pdb
REMARK  239 active torsions:
REMARK  status: ('A' for Active; 'I' for Inactive)
REMARK    1  A    between atoms: _1  and  _3
REMARK    2  A    between atoms: _3  and  _4
REMARK    3  A    between atoms: _6  and  _8
REMARK    4  A    between atoms: _8  and  _9
REMARK    5  A    between atoms: _8  and  _11
REMARK    6  A    between atoms: _11  and  _12
REMARK    7  A    between atoms: _17  and  _18
REMARK    8  A    between atoms: _20  and  _22
REMARK    9  A    between atoms: _22  and  _23
REMARK   10  A    between atoms: _22  and  _25
REMARK   11  A    between atoms: _25  and  _26
REMARK   12  A    between atoms: _31  and  _32
REMARK   13  A    between atoms: _34  and  _36
REMARK   14  A    between atoms: _36  and  _37
REMARK   15  A    between atoms: _36  and  _39
REMARK   16  A    between atoms: _39  and  _40
REMARK   17  A    between atoms: _42  and  _44
REMARK   18  A    between atoms: _44  and  _45
REMARK   19  A    between atoms: _44  and  _47
REMARK   20  A    between atoms: _47  and  _48
REMARK   21  A    between atoms: _51  and  _53
REMARK   22  A    between atoms: _53  and  _54
REMARK   23  A    between atoms: _56  and  _58
REMARK   24  A    between atoms: _58  and  _59
REMARK   25  A    between atoms: _58  and  _61
REMARK   26  A    between atoms: _61  and  _62
REMARK   27  A    between atoms: _67  and  _68
REMARK   28  A    between atoms: _70  and  _72
REMARK   29  A    between atoms: _72  and  _73
REMARK   30  A    between atoms: _72  and  _75
REMARK   31  A    between atoms: _75  and  _76
REMARK   32  A    between atoms: _76  and  _77
REMARK   33  A    between atoms: _79  and  _81
REMARK   34  A    between atoms: _81  and  _82
REMARK   35  A    between atoms: _85  and  _87
REMARK   36  A    between atoms: _87  and  _88
REMARK   37  A    between atoms: _87  and  _90
REMARK   38  A    between atoms: _90  and  _91
REMARK   39  A    between atoms: _96  and  _98
REMARK   40  A    between atoms: _98  and  _99
REMARK   41  A    between atoms: _98  and  _101
REMARK   42  A    between atoms: _101  and  _102
REMARK   43  A    between atoms: _105  and  _107
REMARK   44  A    between atoms: _107  and  _108
REMARK   45  A    between atoms: _107  and  _110
REMARK   46  A    between atoms: _110  and  _111
REMARK   47  A    between atoms: _114  and  _116
REMARK   48  A    between atoms: _116  and  _117
REMARK   49  A    between atoms: _116  and  _119
REMARK   50  A    between atoms: _119  and  _120
REMARK   51  A    between atoms: _122  and  _124
REMARK   52  A    between atoms: _124  and  _125
REMARK   53  A    between atoms: _124  and  _127
REMARK   54  A    between atoms: _127  and  _128
REMARK   55  A    between atoms: _133  and  _135
REMARK   56  A    between atoms: _135  and  _136
REMARK   57  A    between atoms: _139  and  _141
REMARK   58  A    between atoms: _141  and  _142
REMARK   59  A    between atoms: _141  and  _144
REMARK   60  A    between atoms: _144  and  _145
REMARK   61  A    between atoms: _147  and  _149
REMARK   62  A    between atoms: _149  and  _150
REMARK   63  A    between atoms: _149  and  _152
REMARK   64  A    between atoms: _152  and  _153
REMARK   65  A    between atoms: _156  and  _158
REMARK   66  A    between atoms: _158  and  _159
REMARK   67  A    between atoms: _158  and  _161
REMARK   68  A    between atoms: _161  and  _162
REMARK   69  A    between atoms: _165  and  _167
REMARK   70  A    between atoms: _167  and  _168
REMARK   71  A    between atoms: _167  and  _170
REMARK   72  A    between atoms: _170  and  _171
REMARK   73  A    between atoms: _171  and  _172
REMARK   74  A    between atoms: _175  and  _177
REMARK   75  A    between atoms: _177  and  _178
REMARK   76  A    between atoms: _180  and  _182
REMARK   77  A    between atoms: _182  and  _183
REMARK   78  A    between atoms: _182  and  _185
REMARK   79  A    between atoms: _188  and  _190
REMARK   80  A    between atoms: _190  and  _191
REMARK   81  A    between atoms: _190  and  _193
REMARK   82  A    between atoms: _193  and  _194
REMARK   83  A    between atoms: _199  and  _200
REMARK   84  A    between atoms: _202  and  _204
REMARK   85  A    between atoms: _204  and  _205
REMARK   86  A    between atoms: _204  and  _207
REMARK   87  A    between atoms: _207  and  _208
REMARK   88  A    between atoms: _210  and  _212
REMARK   89  A    between atoms: _212  and  _213
REMARK   90  A    between atoms: _212  and  _215
REMARK   91  A    between atoms: _215  and  _216
REMARK   92  A    between atoms: _216  and  _217
REMARK   93  A    between atoms: _219  and  _221
REMARK   94  A    between atoms: _221  and  _222
REMARK   95  A    between atoms: _221  and  _224
REMARK   96  A    between atoms: _224  and  _225
REMARK   97  A    between atoms: _228  and  _230
REMARK   98  A    between atoms: _230  and  _231
REMARK   99  A    between atoms: _230  and  _233
REMARK  100  A    between atoms: _233  and  _234
REMARK  101  A    between atoms: _234  and  _235
REMARK  102  A    between atoms: _238  and  _240
REMARK  103  A    between atoms: _240  and  _241
REMARK  104  A    between atoms: _244  and  _246
REMARK  105  A    between atoms: _246  and  _247
REMARK  106  A    between atoms: _246  and  _249
REMARK  107  A    between atoms: _249  and  _250
REMARK  108  A    between atoms: _255  and  _257
REMARK  109  A    between atoms: _257  and  _258
REMARK  110  A    between atoms: _257  and  _260
REMARK  111  A    between atoms: _260  and  _261
REMARK  112  A    between atoms: _263  and  _265
REMARK  113  A    between atoms: _265  and  _266
REMARK  114  A    between atoms: _265  and  _268
REMARK  115  A    between atoms: _271  and  _273
REMARK  116  A    between atoms: _273  and  _274
REMARK  117  A    between atoms: _276  and  _278
REMARK  118  A    between atoms: _278  and  _279
REMARK  119  A    between atoms: _278  and  _281
REMARK  120  A    between atoms: _281  and  _282
REMARK  121  A    between atoms: _285  and  _287
REMARK  122  A    between atoms: _287  and  _288
REMARK  123  A    between atoms: _287  and  _290
REMARK  124  A    between atoms: _290  and  _291
REMARK  125  A    between atoms: _297  and  _299
REMARK  126  A    between atoms: _299  and  _300
REMARK  127  A    between atoms: _299  and  _302
REMARK  128  A    between atoms: _302  and  _303
REMARK  129  A    between atoms: _305  and  _307
REMARK  130  A    between atoms: _307  and  _308
REMARK  131  A    between atoms: _307  and  _310
REMARK  132  A    between atoms: _310  and  _311
REMARK  133  A    between atoms: _311  and  _312
REMARK  134  A    between atoms: _312  and  _313
REMARK  135  A    between atoms: _313  and  _314
REMARK  136  A    between atoms: _318  and  _320
REMARK  137  A    between atoms: _320  and  _321
REMARK  138  A    between atoms: _320  and  _323
REMARK  139  A    between atoms: _323  and  _324
REMARK  140  A    between atoms: _327  and  _329
REMARK  141  A    between atoms: _329  and  _330
REMARK  142  A    between atoms: _329  and  _332
REMARK  143  A    between atoms: _335  and  _337
REMARK  144  A    between atoms: _337  and  _338
REMARK  145  A    between atoms: _340  and  _342
REMARK  146  A    between atoms: _342  and  _343
REMARK  147  A    between atoms: _345  and  _347
REMARK  148  A    between atoms: _347  and  _348
REMARK  149  A    between atoms: _347  and  _350
REMARK  150  A    between atoms: _350  and  _351
REMARK  151  A    between atoms: _357  and  _359
REMARK  152  A    between atoms: _359  and  _360
REMARK  153  A    between atoms: _359  and  _362
REMARK  154  A    between atoms: _362  and  _363
REMARK  155  A    between atoms: _366  and  _368
REMARK  156  A    between atoms: _368  and  _369
REMARK  157  A    between atoms: _368  and  _371
REMARK  158  A    between atoms: _371  and  _372
REMARK  159  A    between atoms: _377  and  _379
REMARK  160  A    between atoms: _379  and  _380
REMARK  161  A    between atoms: _379  and  _382
REMARK  162  A    between atoms: _382  and  _383
REMARK  163  A    between atoms: _383  and  _384
REMARK  164  A    between atoms: _384  and  _385
REMARK  165  A    between atoms: _394  and  _396
REMARK  166  A    between atoms: _396  and  _397
REMARK  167  A    between atoms: _396  and  _399
REMARK  168  A    between atoms: _399  and  _400
REMARK  169  A    between atoms: _403  and  _405
REMARK  170  A    between atoms: _405  and  _406
REMARK  171  A    between atoms: _405  and  _408
REMARK  172  A    between atoms: _408  and  _409
REMARK  173  A    between atoms: _414  and  _415
REMARK  174  A    between atoms: _417  and  _419
REMARK  175  A    between atoms: _419  and  _420
REMARK  176  A    between atoms: _422  and  _424
REMARK  177  A    between atoms: _424  and  _425
REMARK  178  A    between atoms: _424  and  _427
REMARK  179  A    between atoms: _427  and  _428
REMARK  180  A    between atoms: _430  and  _432
REMARK  181  A    between atoms: _432  and  _433
REMARK  182  A    between atoms: _432  and  _435
REMARK  183  A    between atoms: _435  and  _436
REMARK  184  A    between atoms: _436  and  _437
REMARK  185  A    between atoms: _437  and  _438
REMARK  186  A    between atoms: _447  and  _449
REMARK  187  A    between atoms: _449  and  _450
REMARK  188  A    between atoms: _449  and  _452
REMARK  189  A    between atoms: _452  and  _453
REMARK  190  A    between atoms: _453  and  _454
REMARK  191  A    between atoms: _456  and  _458
REMARK  192  A    between atoms: _458  and  _459
REMARK  193  A    between atoms: _458  and  _461
REMARK  194  A    between atoms: _461  and  _462
REMARK  195  A    between atoms: _465  and  _467
REMARK  196  A    between atoms: _467  and  _468
REMARK  197  A    between atoms: _467  and  _470
REMARK  198  A    between atoms: _470  and  _471
REMARK  199  A    between atoms: _476  and  _478
REMARK  200  A    between atoms: _478  and  _479
REMARK  201  A    between atoms: _481  and  _483
REMARK  202  A    between atoms: _483  and  _484
REMARK  203  A    between atoms: _483  and  _486
REMARK  204  A    between atoms: _486  and  _487
REMARK  205  A    between atoms: _489  and  _491
REMARK  206  A    between atoms: _491  and  _492
REMARK  207  A    between atoms: _491  and  _494
REMARK  208  A    between atoms: _494  and  _495
REMARK  209  A    between atoms: _495  and  _496
REMARK  210  A    between atoms: _498  and  _500
REMARK  211  A    between atoms: _500  and  _501
REMARK  212  A    between atoms: _500  and  _503
REMARK  213  A    between atoms: _503  and  _504
REMARK  214  A    between atoms: _504  and  _505
REMARK  215  A    between atoms: _505  and  _506
REMARK  216  A    between atoms: _516  and  _517
REMARK  217  A    between atoms: _522  and  _524
REMARK  218  A    between atoms: _524  and  _525
REMARK  219  A    between atoms: _524  and  _527
REMARK  220  A    between atoms: _527  and  _528
REMARK  221  A    between atoms: _533  and  _534
REMARK  222  A    between atoms: _536  and  _538
REMARK  223  A    between atoms: _538  and  _539
REMARK  224  A    between atoms: _538  and  _541
REMARK  225  A    between atoms: _541  and  _542
REMARK  226  A    between atoms: _545  and  _547
REMARK  227  A    between atoms: _547  and  _548
REMARK  228  A    between atoms: _547  and  _550
REMARK  229  A    between atoms: _550  and  _551
REMARK  230  A    between atoms: _557  and  _559
REMARK  231  A    between atoms: _559  and  _560
REMARK  232  A    between atoms: _559  and  _562
REMARK  233  A    between atoms: _562  and  _563
REMARK  234  A    between atoms: _566  and  _568
REMARK  235  A    between atoms: _568  and  _569
REMARK  236  A    between atoms: _572  and  _574
REMARK  237  A    between atoms: _574  and  _575
REMARK  238  A    between atoms: _574  and  _577
REMARK  239  A    between atoms: _577  and  _578
REMARK                            x       y       z     vdW  Elec       q    Type
REMARK                         _______ _______ _______ _____ _____    ______ ____
ROOT
ATOM      1  CA  MET A   1      40.770  12.749  22.202  0.00  0.00    +0.134 C 
ENDROOT
BRANCH   1   2
ATOM      2  N   MET A   1      40.817  13.255  23.575  0.00  0.00    -0.239 NA
ATOM      3  H   MET A   1      40.412  14.191  23.780  0.00  0.00    +0.142 HD
ENDBRANCH   1   2
BRANCH   1   4
ATOM      4  C   MET A   1      42.145  12.531  21.570  0.00  0.00    +0.224 C 
ATOM      5  O   MET A   1      42.289  11.637  20.753  0.00  0.00    -0.287 OA
ENDBRANCH   1   4
BRANCH   1   6
ATOM      6  CB  MET A   1      39.927  13.665  21.305  0.00  0.00    +0.037 C 
BRANCH   6   7
ATOM      7  CG  MET A   1      38.436  13.556  21.587  0.00  0.00    +0.059 C 
BRANCH   7   8
ATOM      8  SD  MET A   1      37.478  14.850  20.777  0.00  0.00    -0.139 S 
ATOM      9  CE  MET A   1      37.273  14.166  19.136  0.00  0.00    +0.069 C 
ENDBRANCH   7   8
ENDBRANCH   6   7
ENDBRANCH   1   6
TORSDOF 5
REMARK  Name = ../refined-set-2016/2w8w/2w8w_pocket.pdb
REMARK  239 active torsions:
REMARK  status: ('A' for Active; 'I' for Inactive)
REMARK    1  A    between atoms: _1  and  _3
REMARK    2  A    between atoms: _3  and  _4
REMARK    3  A    between atoms: _6  and  _8
REMARK    4  A    between atoms: _8  and  _9
REMARK    5  A    between atoms: _8  and  _11
REMARK    6  A    between atoms: _11  and  _12
REMARK    7  A    between atoms: _17  and  _18
REMARK    8  A    between atoms: _20  and  _22
REMARK    9  A    between atoms: _22  and  _23
REMARK   10  A    between atoms: _22  and  _25
REMARK   11  A    between atoms: _25  and  _26
REMARK   12  A    between atoms: _31  and  _32
REMARK   13  A    between atoms: _34  and  _36
REMARK   14  A    between atoms: _36  and  _37
REMARK   15  A    between atoms: _36  and  _39
REMARK   16  A    between atoms: _39  and  _40
REMARK   17  A    between atoms: _42  and  _44
REMARK   18  A    between atoms: _44  and  _45
REMARK   19  A    between atoms: _44  and  _47
REMARK   20  A    between atoms: _47  and  _48
REMARK   21  A    between atoms: _51  and  _53
REMARK   22  A    between atoms: _53  and  _54
REMARK   23  A    between atoms: _56  and  _58
REMARK   24  A    between atoms: _58  and  _59
REMARK   25  A    between atoms: _58  and  _61
REMARK   26  A    between atoms: _61  and  _62
REMARK   27  A    between atoms: _67  and  _68
REMARK   28  A    between atoms: _70  and  _72
REMARK   29  A    between atoms: _72  and  _73
REMARK   30  A    between atoms: _72  and  _75
REMARK   31  A    between atoms: _75  and  _76
REMARK   32  A    between atoms: _76  and  _77
REMARK   33  A    between atoms: _79  and  _81
REMARK   34  A    between atoms: _81  and  _82
REMARK   35  A    between atoms: _85  and  _87
REMARK   36  A    between atoms: _87  and  _88
REMARK   37  A    between atoms: _87  and  _90
REMARK   38  A    between atoms: _90  and  _91
REMARK   39  A    between atoms: _96  and  _98
REMARK   40  A    between atoms: _98  and  _99
REMARK   41  A    between atoms: _98  and  _101
REMARK   42  A    between atoms: _101  and  _102
REMARK   43  A    between atoms: _105  and  _107
REMARK   44  A    between atoms: _107  and  _108
REMARK   45  A    between atoms: _107  and  _110
REMARK   46  A    between atoms: _110  and  _111
REMARK   47  A    between atoms: _114  and  _116
REMARK   48  A    between atoms: _116  and  _117
REMARK   49  A    between atoms: _116  and  _119
REMARK   50  A    between atoms: _119  and  _120
REMARK   51  A    between atoms: _122  and  _124
REMARK   52  A    between atoms: _124  and  _125
REMARK   53  A    between atoms: _124  and  _127
REMARK   54  A    between atoms: _127  and  _128
REMARK   55  A    between atoms: _133  and  _135
REMARK   56  A    between atoms: _135  and  _136
REMARK   57  A    between atoms: _139  and  _141
REMARK   58  A    between atoms: _141  and  _142
REMARK   59  A    between atoms: _141  and  _144
REMARK   60  A    between atoms: _144  and  _145
REMARK   61  A    between atoms: _147  and  _149
REMARK   62  A    between atoms: _149  and  _150
REMARK   63  A    between atoms: _149  and  _152
REMARK   64  A    between atoms: _152  and  _153
REMARK   65  A    between atoms: _156  and  _158
REMARK   66  A    between atoms: _158  and  _159
REMARK   67  A    between atoms: _158  and  _161
REMARK   68  A    between atoms: _161  and  _162
REMARK   69  A    between atoms: _165  and  _167
REMARK   70  A    between atoms: _167  and  _168
REMARK   71  A    between atoms: _167  and  _170
REMARK   72  A    between atoms: _170  and  _171
REMARK   73  A    between atoms: _171  and  _172
REMARK   74  A    between atoms: _175  and  _177
REMARK   75  A    between atoms: _177  and  _178
REMARK   76  A    between atoms: _180  and  _182
REMARK   77  A    between atoms: _182  and  _183
REMARK   78  A    between atoms: _182  and  _185
REMARK   79  A    between atoms: _188  and  _190
REMARK   80  A    between atoms: _190  and  _191
REMARK   81  A    between atoms: _190  and  _193
REMARK   82  A    between atoms: _193  and  _194
REMARK   83  A    between atoms: _199  and  _200
REMARK   84  A    between atoms: _202  and  _204
REMARK   85  A    between atoms: _204  and  _205
REMARK   86  A    between atoms: _204  and  _207
REMARK   87  A    between atoms: _207  and  _208
REMARK   88  A    between atoms: _210  and  _212
REMARK   89  A    between atoms: _212  and  _213
REMARK   90  A    between atoms: _212  and  _215
REMARK   91  A    between atoms: _215  and  _216
REMARK   92  A    between atoms: _216  and  _217
REMARK   93  A    between atoms: _219  and  _221
REMARK   94  A    between atoms: _221  and  _222
REMARK   95  A    between atoms: _221  and  _224
REMARK   96  A    between atoms: _224  and  _225
REMARK   97  A    between atoms: _228  and  _230
REMARK   98  A    between atoms: _230  and  _231
REMARK   99  A    between atoms: _230  and  _233
REMARK  100  A    between atoms: _233  and  _234
REMARK  101  A    between atoms: _234  and  _235
REMARK  102  A    between atoms: _238  and  _240
REMARK  103  A    between atoms: _240  and  _241
REMARK  104  A    between atoms: _244  and  _246
REMARK  105  A    between atoms: _246  and  _247
REMARK  106  A    between atoms: _246  and  _249
REMARK  107  A    between atoms: _249  and  _250
REMARK  108  A    between atoms: _255  and  _257
REMARK  109  A    between atoms: _257  and  _258
REMARK  110  A    between atoms: _257  and  _260
REMARK  111  A    between atoms: _260  and  _261
REMARK  112  A    between atoms: _263  and  _265
REMARK  113  A    between atoms: _265  and  _266
REMARK  114  A    between atoms: _265  and  _268
REMARK  115  A    between atoms: _271  and  _273
REMARK  116  A    between atoms: _273  and  _274
REMARK  117  A    between atoms: _276  and  _278
REMARK  118  A    between atoms: _278  and  _279
REMARK  119  A    between atoms: _278  and  _281
REMARK  120  A    between atoms: _281  and  _282
REMARK  121  A    between atoms: _285  and  _287
REMARK  122  A    between atoms: _287  and  _288
REMARK  123  A    between atoms: _287  and  _290
REMARK  124  A    between atoms: _290  and  _291
REMARK  125  A    between atoms: _297  and  _299
REMARK  126  A    between atoms: _299  and  _300
REMARK  127  A    between atoms: _299  and  _302
REMARK  128  A    between atoms: _302  and  _303
REMARK  129  A    between atoms: _305  and  _307
REMARK  130  A    between atoms: _307  and  _308
REMARK  131  A    between atoms: _307  and  _310
REMARK  132  A    between atoms: _310  and  _311
REMARK  133  A    between atoms: _311  and  _312
REMARK  134  A    between atoms: _312  and  _313
REMARK  135  A    between atoms: _313  and  _314
REMARK  136  A    between atoms: _318  and  _320
REMARK  137  A    between atoms: _320  and  _321
REMARK  138  A    between atoms: _320  and  _323
REMARK  139  A    between atoms: _323  and  _324
REMARK  140  A    between atoms: _327  and  _329
REMARK  141  A    between atoms: _329  and  _330
REMARK  142  A    between atoms: _329  and  _332
REMARK  143  A    between atoms: _335  and  _337
REMARK  144  A    between atoms: _337  and  _338
REMARK  145  A    between atoms: _340  and  _342
REMARK  146  A    between atoms: _342  and  _343
REMARK  147  A    between atoms: _345  and  _347
REMARK  148  A    between atoms: _347  and  _348
REMARK  149  A    between atoms: _347  and  _350
REMARK  150  A    between atoms: _350  and  _351
REMARK  151  A    between atoms: _357  and  _359
REMARK  152  A    between atoms: _359  and  _360
REMARK  153  A    between atoms: _359  and  _362
REMARK  154  A    between atoms: _362  and  _363
REMARK  155  A    between atoms: _366  and  _368
REMARK  156  A    between atoms: _368  and  _369
REMARK  157  A    between atoms: _368  and  _371
REMARK  158  A    between atoms: _371  and  _372
REMARK  159  A    between atoms: _377  and  _379
REMARK  160  A    between atoms: _379  and  _380
REMARK  161  A    between atoms: _379  and  _382
REMARK  162  A    between atoms: _382  and  _383
REMARK  163  A    between atoms: _383  and  _384
REMARK  164  A    between atoms: _384  and  _385
REMARK  165  A    between atoms: _394  and  _396
REMARK  166  A    between atoms: _396  and  _397
REMARK  167  A    between atoms: _396  and  _399
REMARK  168  A    between atoms: _399  and  _400
REMARK  169  A    between atoms: _403  and  _405
REMARK  170  A    between atoms: _405  and  _406
REMARK  171  A    between atoms: _405  and  _408
REMARK  172  A    between atoms: _408  and  _409
REMARK  173  A    between atoms: _414  and  _415
REMARK  174  A    between atoms: _417  and  _419
REMARK  175  A    between atoms: _419  and  _420
REMARK  176  A    between atoms: _422  and  _424
REMARK  177  A    between atoms: _424  and  _425
REMARK  178  A    between atoms: _424  and  _427
REMARK  179  A    between atoms: _427  and  _428
REMARK  180  A    between atoms: _430  and  _432
REMARK  181  A    between atoms: _432  and  _433
REMARK  182  A    between atoms: _432  and  _435
REMARK  183  A    between atoms: _435  and  _436
REMARK  184  A    between atoms: _436  and  _437
REMARK  185  A    between atoms: _437  and  _438
REMARK  186  A    between atoms: _447  and  _449
REMARK  187  A    between atoms: _449  and  _450
REMARK  188  A    between atoms: _449  and  _452
REMARK  189  A    between atoms: _452  and  _453
REMARK  190  A    between atoms: _453  and  _454
REMARK  191  A    between atoms: _456  and  _458
REMARK  192  A    between atoms: _458  and  _459
REMARK  193  A    between atoms: _458  and  _461
REMARK  194  A    between atoms: _461  and  _462
REMARK  195  A    between atoms: _465  and  _467
REMARK  196  A    between atoms: _467  and  _468
REMARK  197  A    between atoms: _467  and  _470
REMARK  198  A    between atoms: _470  and  _471
REMARK  199  A    between atoms: _476  and  _478
REMARK  200  A    between atoms: _478  and  _479
REMARK  201  A    between atoms: _481  and  _483
REMARK  202  A    between atoms: _483  and  _484
REMARK  203  A    between atoms: _483  and  _486
REMARK  204  A    between atoms: _486  and  _487
REMARK  205  A    between atoms: _489  and  _491
REMARK  206  A    between atoms: _491  and  _492
REMARK  207  A    between atoms: _491  and  _494
REMARK  208  A    between atoms: _494  and  _495
REMARK  209  A    between atoms: _495  and  _496
REMARK  210  A    between atoms: _498  and  _500
REMARK  211  A    between atoms: _500  and  _501
REMARK  212  A    between atoms: _500  and  _503
REMARK  213  A    between atoms: _503  and  _504
REMARK  214  A    between atoms: _504  and  _505
REMARK  215  A    between atoms: _505  and  _506
REMARK  216  A    between atoms: _516  and  _517
REMARK  217  A    between atoms: _522  and  _524
REMARK  218  A    between atoms: _524  and  _525
REMARK  219  A    between atoms: _524  and  _527
REMARK  220  A    between atoms: _527  and  _528
REMARK  221  A    between atoms: _533  and  _534
REMARK  222  A    between atoms: _536  and  _538
REMARK  223  A    between atoms: _538  and  _539
REMARK  224  A    between atoms: _538  and  _541
REMARK  225  A    between atoms: _541  and  _542
REMARK  226  A    between atoms: _545  and  _547
REMARK  227  A    between atoms: _547  and  _548
REMARK  228  A    between atoms: _547  and  _550
REMARK  229  A    between atoms: _550  and  _551
REMARK  230  A    between atoms: _557  and  _559
REMARK  231  A    between atoms: _559  and  _560
REMARK  232  A    between atoms: _559  and  _562
REMARK  233  A    between atoms: _562  and  _563
REMARK  234  A    between atoms: _566  and  _568
REMARK  235  A    between atoms: _568  and  _569
REMARK  236  A    between atoms: _572  and  _574
REMARK  237  A    between atoms: _574  and  _575
REMARK  238  A    between atoms: _574  and  _577
REMARK  239  A    between atoms: _577  and  _578
REMARK                            x       y       z     vdW  Elec       q    Type
REMARK                         _______ _______ _______ _____ _____    ______ ____
ROOT
ATOM      1  CA  ILE A   4      38.919  13.070  11.236  0.00  0.00    +0.149 C 
ENDROOT
BRANCH   1   4
ATOM      2  C   TYR A   3      40.063  13.973  13.174  0.00  0.00    +0.241 C 
ATOM      3  O   TYR A   3      39.749  15.130  12.876  0.00  0.00    -0.273 OA
ATOM      4  N   ILE A   4      39.662  12.917  12.479  0.00  0.00    -0.297 N 
ATOM      5  H   ILE A   4      39.882  11.962  12.828  0.00  0.00    +0.150 HD
BRANCH   2   6
ATOM      6  CA  TYR A   3      40.956  13.692  14.385  0.00  0.00    +0.153 C 
BRANCH   6   9
ATOM      7  C   PRO A   2      39.542  12.587  16.042  0.00  0.00    +0.241 C 
ATOM      8  O   PRO A   2      39.136  13.650  16.493  0.00  0.00    -0.273 OA
ATOM      9  N   TYR A   3      40.491  12.510  15.111  0.00  0.00    -0.297 N 
ATOM     10  H   TYR A   3      40.913  11.585  14.894  0.00  0.00    +0.150 HD
BRANCH   7  13
ATOM     11  C   ARG A   1      38.778   9.994  14.511  0.00  0.00    +0.241 C 
ATOM     12  N   PRO A   2      39.275  10.100  15.751  0.00  0.00    -0.272 N 
ATOM     13  CA  PRO A   2      38.946  11.276  16.564  0.00  0.00    +0.152 C 
ATOM     14  CB  PRO A   2      39.534  10.934  17.942  0.00  0.00    +0.031 C 
ATOM     15  CG  PRO A   2      39.747   9.476  17.927  0.00  0.00    +0.024 C 
ATOM     16  CD  PRO A   2      40.085   9.139  16.513  0.00  0.00    +0.094 C 
ATOM     17  O   ARG A   1      38.005  10.826  14.045  0.00  0.00    -0.273 OA
BRANCH  11  18
ATOM     18  CA  ARG A   1      39.226   8.800  13.644  0.00  0.00    +0.145 C 
BRANCH  18  19
ATOM     19  N   ARG A   1      40.665   8.521  13.691  0.00  0.00    -0.238 NA
ATOM     20  H   ARG A   1      40.992   7.613  14.079  0.00  0.00    +0.142 HD
ENDBRANCH  18  19
BRANCH  18  21
ATOM     21  CB  ARG A   1      38.416   7.538  13.964  0.00  0.00    +0.030 C 
BRANCH  21  22
ATOM     22  CG  ARG A   1      38.396   6.549  12.791  0.00  0.00    +0.045 C 
BRANCH  22  23
ATOM     23  CD  ARG A   1      37.934   5.162  13.192  0.00  0.00    +0.174 C 
BRANCH  23  24
ATOM     24  NE  ARG A   1      36.495   5.083  13.438  0.00  0.00    -0.265 N 
ATOM     25  HE  ARG A   1      36.176   5.114  14.428  0.00  0.00    +0.259 HD
ATOM     26  CZ  ARG A   1      35.557   4.974  12.494  0.00  0.00    +0.342 C 
ATOM     27  NH2 ARG A   1      34.282   4.897  12.852  0.00  0.00    -0.292 N 
ATOM     28 HH21 ARG A   1      34.022   4.922  13.859  0.00  0.00    +0.255 HD
ATOM     29 HH22 ARG A   1      33.542   4.812  12.126  0.00  0.00    +0.255 HD
ATOM     30  NH1 ARG A   1      35.868   4.935  11.202  0.00  0.00    -0.292 N 
ATOM     31 HH11 ARG A   1      36.863   4.990  10.905  0.00  0.00    +0.255 HD
ATOM     32 HH12 ARG A   1      35.116   4.850  10.489  0.00  0.00    +0.255 HD
ENDBRANCH  23  24
ENDBRANCH  22  23
ENDBRANCH  21  22
ENDBRANCH  18  21
ENDBRANCH  11  18
ENDBRANCH   7  13
ENDBRANCH   6   9
BRANCH   6  33
ATOM     33  CB  TYR A   3      42.395  13.508  13.917  0.00  0.00    +0.055 C 
BRANCH  33  34
ATOM     34  CG  TYR A   3      42.916  14.657  13.099  0.00  0.00    -0.020 A 
ATOM     35  CD2 TYR A   3      43.494  15.762  13.713  0.00  0.00    -0.001 A 
ATOM     36  CE2 TYR A   3      43.969  16.820  12.969  0.00  0.00    +0.036 A 
ATOM     37  CZ  TYR A   3      43.877  16.785  11.585  0.00  0.00    +0.134 A 
ATOM     38  CE1 TYR A   3      43.309  15.700  10.949  0.00  0.00    +0.036 A 
ATOM     39  CD1 TYR A   3      42.838  14.640  11.705  0.00  0.00    -0.001 A 
BRANCH  37  40
ATOM     40  OH  TYR A   3      44.360  17.840  10.848  0.00  0.00    -0.506 OA
ATOM     41  HH  TYR A   3      43.624  18.233  10.315  0.00  0.00    +0.292 HD
ENDBRANCH  37  40
ENDBRANCH  33  34
ENDBRANCH   6  33
ENDBRANCH   2   6
ENDBRANCH   1   4
BRANCH   1  42
ATOM     42  C   ILE A   4      37.472  13.479  11.515  0.00  0.00    +0.241 C 
ATOM     43  N   PHE A   5      36.839  12.818  12.475  0.00  0.00    -0.297 N 
ATOM     44  H   PHE A   5      37.390  12.213  13.117  0.00  0.00    +0.150 HD
ATOM     45  O   ILE A   4      36.956  14.401  10.895  0.00  0.00    -0.273 OA
BRANCH  43  46
ATOM     46  CA  PHE A   5      35.392  12.912  12.659  0.00  0.00    +0.153 C 
BRANCH  46  47
ATOM     47  C   PHE A   5      34.948  13.822  13.823  0.00  0.00    +0.241 C 
ATOM     48  O   PHE A   5      34.036  13.485  14.591  0.00  0.00    -0.273 OA
ATOM     49  N   THR A   6      35.584  14.982  13.939  0.00  0.00    -0.295 N 
ATOM     50  H   THR A   6      36.408  15.171  13.333  0.00  0.00    +0.150 HD
BRANCH  49  51
ATOM     51  CA  THR A   6      35.157  15.997  14.894  0.00  0.00    +0.176 C 
BRANCH  51  52
ATOM     52  C   THR A   6      35.465  17.383  14.332  0.00  0.00    +0.243 C 
ATOM     53  N   ALA A   7      34.733  18.378  14.807  0.00  0.00    -0.297 N 
ATOM     54  H   ALA A   7      33.985  18.177  15.501  0.00  0.00    +0.150 HD
ATOM     55  O   THR A   6      36.351  17.547  13.478  0.00  0.00    -0.273 OA
BRANCH  53  56
ATOM     56  CA  ALA A   7      34.957  19.745  14.376  0.00  0.00    +0.149 C 
ATOM     57  CB  ALA A   7      33.854  20.640  14.870  0.00  0.00    +0.031 C 
BRANCH  56  58
ATOM     58  C   ALA A   7      36.293  20.224  14.917  0.00  0.00    +0.241 C 
ATOM     59  O   ALA A   7      36.712  19.820  16.002  0.00  0.00    -0.273 OA
ATOM     60  N   SER A   8      36.955  21.080  14.149  0.00  0.00    -0.296 N 
ATOM     61  H   SER A   8      36.579  21.307  13.206  0.00  0.00    +0.150 HD
BRANCH  60  62
ATOM     62  CA  SER A   8      38.182  21.706  14.583  0.00  0.00    +0.166 C 
BRANCH  62  63
ATOM     63  CB  SER A   8      37.876  22.798  15.598  0.00  0.00    +0.229 C 
ATOM     64  OG  SER A   8      36.752  23.303  15.672  0.00  0.00    -0.286 OA
ENDBRANCH  62  63
BRANCH  62  65
ATOM     65  C   SER A   8      38.926  22.273  13.382  0.00  0.00    +0.165 C 
BRANCH  65  66
ATOM     66  O   SER A   8      38.260  23.403  12.873  0.00  0.00    -0.380 OA
ATOM     67  H   SER A   8      38.759  23.756  12.094  0.00  0.00    +0.211 HD
ENDBRANCH  65  66
ENDBRANCH  62  65
ENDBRANCH  60  62
ENDBRANCH  56  58
ENDBRANCH  53  56
ENDBRANCH  51  52
BRANCH  51  68
ATOM     68  CB  THR A   6      35.832  15.816  16.283  0.00  0.00    +0.137 C 
ATOM     69  CG2 THR A   6      37.261  16.324  16.265  0.00  0.00    +0.034 C 
BRANCH  68  70
ATOM     70  OG1 THR A   6      35.086  16.529  17.286  0.00  0.00    -0.382 OA
ATOM     71  HG1 THR A   6      34.162  16.175  17.322  0.00  0.00    +0.210 HD
ENDBRANCH  68  70
ENDBRANCH  51  68
ENDBRANCH  49  51
ENDBRANCH  46  47
BRANCH  46  72
ATOM     72  CB  PHE A   5      34.821  11.496  12.796  0.00  0.00    +0.055 C 
BRANCH  72  73
ATOM     73  CG  PHE A   5      35.041  10.643  11.574  0.00  0.00    -0.020 A 
ATOM     74  CD2 PHE A   5      36.022   9.651  11.561  0.00  0.00    -0.004 A 
ATOM     75  CE2 PHE A   5      36.230   8.862  10.426  0.00  0.00    -0.000 A 
ATOM     76  CZ  PHE A   5      35.446   9.058   9.290  0.00  0.00    -0.000 A 
ATOM     77  CE1 PHE A   5      34.460  10.041   9.295  0.00  0.00    -0.000 A 
ATOM     78  CD1 PHE A   5      34.261  10.826  10.437  0.00  0.00    -0.004 A 
ENDBRANCH  72  73
ENDBRANCH  46  72
ENDBRANCH  43  46
ENDBRANCH   1  42
BRANCH   1  79
ATOM     79  CB  ILE A   4      38.958  11.780  10.394  0.00  0.00    +0.027 C 
ATOM     80  CG2 ILE A   4      38.101  11.930   9.132  0.00  0.00    +0.002 C 
BRANCH  79  81
ATOM     81  CG1 ILE A   4      40.406  11.450   9.988  0.00  0.00    +0.002 C 
ATOM     82  CD1 ILE A   4      40.626  10.003   9.545  0.00  0.00    +0.000 C 
ENDBRANCH  79  81
ENDBRANCH   1  79
TORSDOF 30
REMARK  Name = ../refined-set-2016/2w8w/2w8w_pocket.pdb
REMARK  239 active torsions:
REMARK  status: ('A' for Active; 'I' for Inactive)
REMARK    1  A    between atoms: _1  and  _3
REMARK    2  A    between atoms: _3  and  _4
REMARK    3  A    between atoms: _6  and  _8
REMARK    4  A    between atoms: _8  and  _9
REMARK    5  A    between atoms: _8  and  _11
REMARK    6  A    between atoms: _11  and  _12
REMARK    7  A    between atoms: _17  and  _18
REMARK    8  A    between atoms: _20  and  _22
REMARK    9  A    between atoms: _22  and  _23
REMARK   10  A    between atoms: _22  and  _25
REMARK   11  A    between atoms: _25  and  _26
REMARK   12  A    between atoms: _31  and  _32
REMARK   13  A    between atoms: _34  and  _36
REMARK   14  A    between atoms: _36  and  _37
REMARK   15  A    between atoms: _36  and  _39
REMARK   16  A    between atoms: _39  and  _40
REMARK   17  A    between atoms: _42  and  _44
REMARK   18  A    between atoms: _44  and  _45
REMARK   19  A    between atoms: _44  and  _47
REMARK   20  A    between atoms: _47  and  _48
REMARK   21  A    between atoms: _51  and  _53
REMARK   22  A    between atoms: _53  and  _54
REMARK   23  A    between atoms: _56  and  _58
REMARK   24  A    between atoms: _58  and  _59
REMARK   25  A    between atoms: _58  and  _61
REMARK   26  A    between atoms: _61  and  _62
REMARK   27  A    between atoms: _67  and  _68
REMARK   28  A    between atoms: _70  and  _72
REMARK   29  A    between atoms: _72  and  _73
REMARK   30  A    between atoms: _72  and  _75
REMARK   31  A    between atoms: _75  and  _76
REMARK   32  A    between atoms: _76  and  _77
REMARK   33  A    between atoms: _79  and  _81
REMARK   34  A    between atoms: _81  and  _82
REMARK   35  A    between atoms: _85  and  _87
REMARK   36  A    between atoms: _87  and  _88
REMARK   37  A    between atoms: _87  and  _90
REMARK   38  A    between atoms: _90  and  _91
REMARK   39  A    between atoms: _96  and  _98
REMARK   40  A    between atoms: _98  and  _99
REMARK   41  A    between atoms: _98  and  _101
REMARK   42  A    between atoms: _101  and  _102
REMARK   43  A    between atoms: _105  and  _107
REMARK   44  A    between atoms: _107  and  _108
REMARK   45  A    between atoms: _107  and  _110
REMARK   46  A    between atoms: _110  and  _111
REMARK   47  A    between atoms: _114  and  _116
REMARK   48  A    between atoms: _116  and  _117
REMARK   49  A    between atoms: _116  and  _119
REMARK   50  A    between atoms: _119  and  _120
REMARK   51  A    between atoms: _122  and  _124
REMARK   52  A    between atoms: _124  and  _125
REMARK   53  A    between atoms: _124  and  _127
REMARK   54  A    between atoms: _127  and  _128
REMARK   55  A    between atoms: _133  and  _135
REMARK   56  A    between atoms: _135  and  _136
REMARK   57  A    between atoms: _139  and  _141
REMARK   58  A    between atoms: _141  and  _142
REMARK   59  A    between atoms: _141  and  _144
REMARK   60  A    between atoms: _144  and  _145
REMARK   61  A    between atoms: _147  and  _149
REMARK   62  A    between atoms: _149  and  _150
REMARK   63  A    between atoms: _149  and  _152
REMARK   64  A    between atoms: _152  and  _153
REMARK   65  A    between atoms: _156  and  _158
REMARK   66  A    between atoms: _158  and  _159
REMARK   67  A    between atoms: _158  and  _161
REMARK   68  A    between atoms: _161  and  _162
REMARK   69  A    between atoms: _165  and  _167
REMARK   70  A    between atoms: _167  and  _168
REMARK   71  A    between atoms: _167  and  _170
REMARK   72  A    between atoms: _170  and  _171
REMARK   73  A    between atoms: _171  and  _172
REMARK   74  A    between atoms: _175  and  _177
REMARK   75  A    between atoms: _177  and  _178
REMARK   76  A    between atoms: _180  and  _182
REMARK   77  A    between atoms: _182  and  _183
REMARK   78  A    between atoms: _182  and  _185
REMARK   79  A    between atoms: _188  and  _190
REMARK   80  A    between atoms: _190  and  _191
REMARK   81  A    between atoms: _190  and  _193
REMARK   82  A    between atoms: _193  and  _194
REMARK   83  A    between atoms: _199  and  _200
REMARK   84  A    between atoms: _202  and  _204
REMARK   85  A    between atoms: _204  and  _205
REMARK   86  A    between atoms: _204  and  _207
REMARK   87  A    between atoms: _207  and  _208
REMARK   88  A    between atoms: _210  and  _212
REMARK   89  A    between atoms: _212  and  _213
REMARK   90  A    between atoms: _212  and  _215
REMARK   91  A    between atoms: _215  and  _216
REMARK   92  A    between atoms: _216  and  _217
REMARK   93  A    between atoms: _219  and  _221
REMARK   94  A    between atoms: _221  and  _222
REMARK   95  A    between atoms: _221  and  _224
REMARK   96  A    between atoms: _224  and  _225
REMARK   97  A    between atoms: _228  and  _230
REMARK   98  A    between atoms: _230  and  _231
REMARK   99  A    between atoms: _230  and  _233
REMARK  100  A    between atoms: _233  and  _234
REMARK  101  A    between atoms: _234  and  _235
REMARK  102  A    between atoms: _238  and  _240
REMARK  103  A    between atoms: _240  and  _241
REMARK  104  A    between atoms: _244  and  _246
REMARK  105  A    between atoms: _246  and  _247
REMARK  106  A    between atoms: _246  and  _249
REMARK  107  A    between atoms: _249  and  _250
REMARK  108  A    between atoms: _255  and  _257
REMARK  109  A    between atoms: _257  and  _258
REMARK  110  A    between atoms: _257  and  _260
REMARK  111  A    between atoms: _260  and  _261
REMARK  112  A    between atoms: _263  and  _265
REMARK  113  A    between atoms: _265  and  _266
REMARK  114  A    between atoms: _265  and  _268
REMARK  115  A    between atoms: _271  and  _273
REMARK  116  A    between atoms: _273  and  _274
REMARK  117  A    between atoms: _276  and  _278
REMARK  118  A    between atoms: _278  and  _279
REMARK  119  A    between atoms: _278  and  _281
REMARK  120  A    between atoms: _281  and  _282
REMARK  121  A    between atoms: _285  and  _287
REMARK  122  A    between atoms: _287  and  _288
REMARK  123  A    between atoms: _287  and  _290
REMARK  124  A    between atoms: _290  and  _291
REMARK  125  A    between atoms: _297  and  _299
REMARK  126  A    between atoms: _299  and  _300
REMARK  127  A    between atoms: _299  and  _302
REMARK  128  A    between atoms: _302  and  _303
REMARK  129  A    between atoms: _305  and  _307
REMARK  130  A    between atoms: _307  and  _308
REMARK  131  A    between atoms: _307  and  _310
REMARK  132  A    between atoms: _310  and  _311
REMARK  133  A    between atoms: _311  and  _312
REMARK  134  A    between atoms: _312  and  _313
REMARK  135  A    between atoms: _313  and  _314
REMARK  136  A    between atoms: _318  and  _320
REMARK  137  A    between atoms: _320  and  _321
REMARK  138  A    between atoms: _320  and  _323
REMARK  139  A    between atoms: _323  and  _324
REMARK  140  A    between atoms: _327  and  _329
REMARK  141  A    between atoms: _329  and  _330
REMARK  142  A    between atoms: _329  and  _332
REMARK  143  A    between atoms: _335  and  _337
REMARK  144  A    between atoms: _337  and  _338
REMARK  145  A    between atoms: _340  and  _342
REMARK  146  A    between atoms: _342  and  _343
REMARK  147  A    between atoms: _345  and  _347
REMARK  148  A    between atoms: _347  and  _348
REMARK  149  A    between atoms: _347  and  _350
REMARK  150  A    between atoms: _350  and  _351
REMARK  151  A    between atoms: _357  and  _359
REMARK  152  A    between atoms: _359  and  _360
REMARK  153  A    between atoms: _359  and  _362
REMARK  154  A    between atoms: _362  and  _363
REMARK  155  A    between atoms: _366  and  _368
REMARK  156  A    between atoms: _368  and  _369
REMARK  157  A    between atoms: _368  and  _371
REMARK  158  A    between atoms: _371  and  _372
REMARK  159  A    between atoms: _377  and  _379
REMARK  160  A    between atoms: _379  and  _380
REMARK  161  A    between atoms: _379  and  _382
REMARK  162  A    between atoms: _382  and  _383
REMARK  163  A    between atoms: _383  and  _384
REMARK  164  A    between atoms: _384  and  _385
REMARK  165  A    between atoms: _394  and  _396
REMARK  166  A    between atoms: _396  and  _397
REMARK  167  A    between atoms: _396  and  _399
REMARK  168  A    between atoms: _399  and  _400
REMARK  169  A    between atoms: _403  and  _405
REMARK  170  A    between atoms: _405  and  _406
REMARK  171  A    between atoms: _405  and  _408
REMARK  172  A    between atoms: _408  and  _409
REMARK  173  A    between atoms: _414  and  _415
REMARK  174  A    between atoms: _417  and  _419
REMARK  175  A    between atoms: _419  and  _420
REMARK  176  A    between atoms: _422  and  _424
REMARK  177  A    between atoms: _424  and  _425
REMARK  178  A    between atoms: _424  and  _427
REMARK  179  A    between atoms: _427  and  _428
REMARK  180  A    between atoms: _430  and  _432
REMARK  181  A    between atoms: _432  and  _433
REMARK  182  A    between atoms: _432  and  _435
REMARK  183  A    between atoms: _435  and  _436
REMARK  184  A    between atoms: _436  and  _437
REMARK  185  A    between atoms: _437  and  _438
REMARK  186  A    between atoms: _447  and  _449
REMARK  187  A    between atoms: _449  and  _450
REMARK  188  A    between atoms: _449  and  _452
REMARK  189  A    between atoms: _452  and  _453
REMARK  190  A    between atoms: _453  and  _454
REMARK  191  A    between atoms: _456  and  _458
REMARK  192  A    between atoms: _458  and  _459
REMARK  193  A    between atoms: _458  and  _461
REMARK  194  A    between atoms: _461  and  _462
REMARK  195  A    between atoms: _465  and  _467
REMARK  196  A    between atoms: _467  and  _468
REMARK  197  A    between atoms: _467  and  _470
REMARK  198  A    between atoms: _470  and  _471
REMARK  199  A    between atoms: _476  and  _478
REMARK  200  A    between atoms: _478  and  _479
REMARK  201  A    between atoms: _481  and  _483
REMARK  202  A    between atoms: _483  and  _484
REMARK  203  A    between atoms: _483  and  _486
REMARK  204  A    between atoms: _486  and  _487
REMARK  205  A    between atoms: _489  and  _491
REMARK  206  A    between atoms: _491  and  _492
REMARK  207  A    between atoms: _491  and  _494
REMARK  208  A    between atoms: _494  and  _495
REMARK  209  A    between atoms: _495  and  _496
REMARK  210  A    between atoms: _498  and  _500
REMARK  211  A    between atoms: _500  and  _501
REMARK  212  A    between atoms: _500  and  _503
REMARK  213  A    between atoms: _503  and  _504
REMARK  214  A    between atoms: _504  and  _505
REMARK  215  A    between atoms: _505  and  _506
REMARK  216  A    between atoms: _516  and  _517
REMARK  217  A    between atoms: _522  and  _524
REMARK  218  A    between atoms: _524  and  _525
REMARK  219  A    between atoms: _524  and  _527
REMARK  220  A    between atoms: _527  and  _528
REMARK  221  A    between atoms: _533  and  _534
REMARK  222  A    between atoms: _536  and  _538
REMARK  223  A    between atoms: _538  and  _539
REMARK  224  A    between atoms: _538  and  _541
REMARK  225  A    between atoms: _541  and  _542
REMARK  226  A    between atoms: _545  and  _547
REMARK  227  A    between atoms: _547  and  _548
REMARK  228  A    between atoms: _547  and  _550
REMARK  229  A    between atoms: _550  and  _551
REMARK  230  A    between atoms: _557  and  _559
REMARK  231  A    between atoms: _559  and  _560
REMARK  232  A    between atoms: _559  and  _562
REMARK  233  A    between atoms: _562  and  _563
REMARK  234  A    between atoms: _566  and  _568
REMARK  235  A    between atoms: _568  and  _569
REMARK  236  A    between atoms: _572  and  _574
REMARK  237  A    between atoms: _574  and  _575
REMARK  238  A    between atoms: _574  and  _577
REMARK  239  A    between atoms: _577  and  _578
REMARK                            x       y       z     vdW  Elec       q    Type
REMARK                         _______ _______ _______ _____ _____    ______ ____
ROOT
ATOM      1  O   HOH     1      30.958   9.381   9.684  0.00  0.00    +0.000 OA
ENDROOT
TORSDOF 0
REMARK  Name = ../refined-set-2016/2w8w/2w8w_pocket.pdb
REMARK  239 active torsions:
REMARK  status: ('A' for Active; 'I' for Inactive)
REMARK    1  A    between atoms: _1  and  _3
REMARK    2  A    between atoms: _3  and  _4
REMARK    3  A    between atoms: _6  and  _8
REMARK    4  A    between atoms: _8  and  _9
REMARK    5  A    between atoms: _8  and  _11
REMARK    6  A    between atoms: _11  and  _12
REMARK    7  A    between atoms: _17  and  _18
REMARK    8  A    between atoms: _20  and  _22
REMARK    9  A    between atoms: _22  and  _23
REMARK   10  A    between atoms: _22  and  _25
REMARK   11  A    between atoms: _25  and  _26
REMARK   12  A    between atoms: _31  and  _32
REMARK   13  A    between atoms: _34  and  _36
REMARK   14  A    between atoms: _36  and  _37
REMARK   15  A    between atoms: _36  and  _39
REMARK   16  A    between atoms: _39  and  _40
REMARK   17  A    between atoms: _42  and  _44
REMARK   18  A    between atoms: _44  and  _45
REMARK   19  A    between atoms: _44  and  _47
REMARK   20  A    between atoms: _47  and  _48
REMARK   21  A    between atoms: _51  and  _53
REMARK   22  A    between atoms: _53  and  _54
REMARK   23  A    between atoms: _56  and  _58
REMARK   24  A    between atoms: _58  and  _59
REMARK   25  A    between atoms: _58  and  _61
REMARK   26  A    between atoms: _61  and  _62
REMARK   27  A    between atoms: _67  and  _68
REMARK   28  A    between atoms: _70  and  _72
REMARK   29  A    between atoms: _72  and  _73
REMARK   30  A    between atoms: _72  and  _75
REMARK   31  A    between atoms: _75  and  _76
REMARK   32  A    between atoms: _76  and  _77
REMARK   33  A    between atoms: _79  and  _81
REMARK   34  A    between atoms: _81  and  _82
REMARK   35  A    between atoms: _85  and  _87
REMARK   36  A    between atoms: _87  and  _88
REMARK   37  A    between atoms: _87  and  _90
REMARK   38  A    between atoms: _90  and  _91
REMARK   39  A    between atoms: _96  and  _98
REMARK   40  A    between atoms: _98  and  _99
REMARK   41  A    between atoms: _98  and  _101
REMARK   42  A    between atoms: _101  and  _102
REMARK   43  A    between atoms: _105  and  _107
REMARK   44  A    between atoms: _107  and  _108
REMARK   45  A    between atoms: _107  and  _110
REMARK   46  A    between atoms: _110  and  _111
REMARK   47  A    between atoms: _114  and  _116
REMARK   48  A    between atoms: _116  and  _117
REMARK   49  A    between atoms: _116  and  _119
REMARK   50  A    between atoms: _119  and  _120
REMARK   51  A    between atoms: _122  and  _124
REMARK   52  A    between atoms: _124  and  _125
REMARK   53  A    between atoms: _124  and  _127
REMARK   54  A    between atoms: _127  and  _128
REMARK   55  A    between atoms: _133  and  _135
REMARK   56  A    between atoms: _135  and  _136
REMARK   57  A    between atoms: _139  and  _141
REMARK   58  A    between atoms: _141  and  _142
REMARK   59  A    between atoms: _141  and  _144
REMARK   60  A    between atoms: _144  and  _145
REMARK   61  A    between atoms: _147  and  _149
REMARK   62  A    between atoms: _149  and  _150
REMARK   63  A    between atoms: _149  and  _152
REMARK   64  A    between atoms: _152  and  _153
REMARK   65  A    between atoms: _156  and  _158
REMARK   66  A    between atoms: _158  and  _159
REMARK   67  A    between atoms: _158  and  _161
REMARK   68  A    between atoms: _161  and  _162
REMARK   69  A    between atoms: _165  and  _167
REMARK   70  A    between atoms: _167  and  _168
REMARK   71  A    between atoms: _167  and  _170
REMARK   72  A    between atoms: _170  and  _171
REMARK   73  A    between atoms: _171  and  _172
REMARK   74  A    between atoms: _175  and  _177
REMARK   75  A    between atoms: _177  and  _178
REMARK   76  A    between atoms: _180  and  _182
REMARK   77  A    between atoms: _182  and  _183
REMARK   78  A    between atoms: _182  and  _185
REMARK   79  A    between atoms: _188  and  _190
REMARK   80  A    between atoms: _190  and  _191
REMARK   81  A    between atoms: _190  and  _193
REMARK   82  A    between atoms: _193  and  _194
REMARK   83  A    between atoms: _199  and  _200
REMARK   84  A    between atoms: _202  and  _204
REMARK   85  A    between atoms: _204  and  _205
REMARK   86  A    between atoms: _204  and  _207
REMARK   87  A    between atoms: _207  and  _208
REMARK   88  A    between atoms: _210  and  _212
REMARK   89  A    between atoms: _212  and  _213
REMARK   90  A    between atoms: _212  and  _215
REMARK   91  A    between atoms: _215  and  _216
REMARK   92  A    between atoms: _216  and  _217
REMARK   93  A    between atoms: _219  and  _221
REMARK   94  A    between atoms: _221  and  _222
REMARK   95  A    between atoms: _221  and  _224
REMARK   96  A    between atoms: _224  and  _225
REMARK   97  A    between atoms: _228  and  _230
REMARK   98  A    between atoms: _230  and  _231
REMARK   99  A    between atoms: _230  and  _233
REMARK  100  A    between atoms: _233  and  _234
REMARK  101  A    between atoms: _234  and  _235
REMARK  102  A    between atoms: _238  and  _240
REMARK  103  A    between atoms: _240  and  _241
REMARK  104  A    between atoms: _244  and  _246
REMARK  105  A    between atoms: _246  and  _247
REMARK  106  A    between atoms: _246  and  _249
REMARK  107  A    between atoms: _249  and  _250
REMARK  108  A    between atoms: _255  and  _257
REMARK  109  A    between atoms: _257  and  _258
REMARK  110  A    between atoms: _257  and  _260
REMARK  111  A    between atoms: _260  and  _261
REMARK  112  A    between atoms: _263  and  _265
REMARK  113  A    between atoms: _265  and  _266
REMARK  114  A    between atoms: _265  and  _268
REMARK  115  A    between atoms: _271  and  _273
REMARK  116  A    between atoms: _273  and  _274
REMARK  117  A    between atoms: _276  and  _278
REMARK  118  A    between atoms: _278  and  _279
REMARK  119  A    between atoms: _278  and  _281
REMARK  120  A    between atoms: _281  and  _282
REMARK  121  A    between atoms: _285  and  _287
REMARK  122  A    between atoms: _287  and  _288
REMARK  123  A    between atoms: _287  and  _290
REMARK  124  A    between atoms: _290  and  _291
REMARK  125  A    between atoms: _297  and  _299
REMARK  126  A    between atoms: _299  and  _300
REMARK  127  A    between atoms: _299  and  _302
REMARK  128  A    between atoms: _302  and  _303
REMARK  129  A    between atoms: _305  and  _307
REMARK  130  A    between atoms: _307  and  _308
REMARK  131  A    between atoms: _307  and  _310
REMARK  132  A    between atoms: _310  and  _311
REMARK  133  A    between atoms: _311  and  _312
REMARK  134  A    between atoms: _312  and  _313
REMARK  135  A    between atoms: _313  and  _314
REMARK  136  A    between atoms: _318  and  _320
REMARK  137  A    between atoms: _320  and  _321
REMARK  138  A    between atoms: _320  and  _323
REMARK  139  A    between atoms: _323  and  _324
REMARK  140  A    between atoms: _327  and  _329
REMARK  141  A    between atoms: _329  and  _330
REMARK  142  A    between atoms: _329  and  _332
REMARK  143  A    between atoms: _335  and  _337
REMARK  144  A    between atoms: _337  and  _338
REMARK  145  A    between atoms: _340  and  _342
REMARK  146  A    between atoms: _342  and  _343
REMARK  147  A    between atoms: _345  and  _347
REMARK  148  A    between atoms: _347  and  _348
REMARK  149  A    between atoms: _347  and  _350
REMARK  150  A    between atoms: _350  and  _351
REMARK  151  A    between atoms: _357  and  _359
REMARK  152  A    between atoms: _359  and  _360
REMARK  153  A    between atoms: _359  and  _362
REMARK  154  A    between atoms: _362  and  _363
REMARK  155  A    between atoms: _366  and  _368
REMARK  156  A    between atoms: _368  and  _369
REMARK  157  A    between atoms: _368  and  _371
REMARK  158  A    between atoms: _371  and  _372
REMARK  159  A    between atoms: _377  and  _379
REMARK  160  A    between atoms: _379  and  _380
REMARK  161  A    between atoms: _379  and  _382
REMARK  162  A    between atoms: _382  and  _383
REMARK  163  A    between atoms: _383  and  _384
REMARK  164  A    between atoms: _384  and  _385
REMARK  165  A    between atoms: _394  and  _396
REMARK  166  A    between atoms: _396  and  _397
REMARK  167  A    between atoms: _396  and  _399
REMARK  168  A    between atoms: _399  and  _400
REMARK  169  A    between atoms: _403  and  _405
REMARK  170  A    between atoms: _405  and  _406
REMARK  171  A    between atoms: _405  and  _408
REMARK  172  A    between atoms: _408  and  _409
REMARK  173  A    between atoms: _414  and  _415
REMARK  174  A    between atoms: _417  and  _419
REMARK  175  A    between atoms: _419  and  _420
REMARK  176  A    between atoms: _422  and  _424
REMARK  177  A    between atoms: _424  and  _425
REMARK  178  A    between atoms: _424  and  _427
REMARK  179  A    between atoms: _427  and  _428
REMARK  180  A    between atoms: _430  and  _432
REMARK  181  A    between atoms: _432  and  _433
REMARK  182  A    between atoms: _432  and  _435
REMARK  183  A    between atoms: _435  and  _436
REMARK  184  A    between atoms: _436  and  _437
REMARK  185  A    between atoms: _437  and  _438
REMARK  186  A    between atoms: _447  and  _449
REMARK  187  A    between atoms: _449  and  _450
REMARK  188  A    between atoms: _449  and  _452
REMARK  189  A    between atoms: _452  and  _453
REMARK  190  A    between atoms: _453  and  _454
REMARK  191  A    between atoms: _456  and  _458
REMARK  192  A    between atoms: _458  and  _459
REMARK  193  A    between atoms: _458  and  _461
REMARK  194  A    between atoms: _461  and  _462
REMARK  195  A    between atoms: _465  and  _467
REMARK  196  A    between atoms: _467  and  _468
REMARK  197  A    between atoms: _467  and  _470
REMARK  198  A    between atoms: _470  and  _471
REMARK  199  A    between atoms: _476  and  _478
REMARK  200  A    between atoms: _478  and  _479
REMARK  201  A    between atoms: _481  and  _483
REMARK  202  A    between atoms: _483  and  _484
REMARK  203  A    between atoms: _483  and  _486
REMARK  204  A    between atoms: _486  and  _487
REMARK  205  A    between atoms: _489  and  _491
REMARK  206  A    between atoms: _491  and  _492
REMARK  207  A    between atoms: _491  and  _494
REMARK  208  A    between atoms: _494  and  _495
REMARK  209  A    between atoms: _495  and  _496
REMARK  210  A    between atoms: _498  and  _500
REMARK  211  A    between atoms: _500  and  _501
REMARK  212  A    between atoms: _500  and  _503
REMARK  213  A    between atoms: _503  and  _504
REMARK  214  A    between atoms: _504  and  _505
REMARK  215  A    between atoms: _505  and  _506
REMARK  216  A    between atoms: _516  and  _517
REMARK  217  A    between atoms: _522  and  _524
REMARK  218  A    between atoms: _524  and  _525
REMARK  219  A    between atoms: _524  and  _527
REMARK  220  A    between atoms: _527  and  _528
REMARK  221  A    between atoms: _533  and  _534
REMARK  222  A    between atoms: _536  and  _538
REMARK  223  A    between atoms: _538  and  _539
REMARK  224  A    between atoms: _538  and  _541
REMARK  225  A    between atoms: _541  and  _542
REMARK  226  A    between atoms: _545  and  _547
REMARK  227  A    between atoms: _547  and  _548
REMARK  228  A    between atoms: _547  and  _550
REMARK  229  A    between atoms: _550  and  _551
REMARK  230  A    between atoms: _557  and  _559
REMARK  231  A    between atoms: _559  and  _560
REMARK  232  A    between atoms: _559  and  _562
REMARK  233  A    between atoms: _562  and  _563
REMARK  234  A    between atoms: _566  and  _568
REMARK  235  A    between atoms: _568  and  _569
REMARK  236  A    between atoms: _572  and  _574
REMARK  237  A    between atoms: _574  and  _575
REMARK  238  A    between atoms: _574  and  _577
REMARK  239  A    between atoms: _577  and  _578
REMARK                            x       y       z     vdW  Elec       q    Type
REMARK                         _______ _______ _______ _____ _____    ______ ____
ROOT
ATOM      1  O   HOH     1      26.028  11.545   9.590  0.00  0.00    +0.000 OA
ENDROOT
TORSDOF 0
REMARK  Name = ../refined-set-2016/2w8w/2w8w_pocket.pdb
REMARK  239 active torsions:
REMARK  status: ('A' for Active; 'I' for Inactive)
REMARK    1  A    between atoms: _1  and  _3
REMARK    2  A    between atoms: _3  and  _4
REMARK    3  A    between atoms: _6  and  _8
REMARK    4  A    between atoms: _8  and  _9
REMARK    5  A    between atoms: _8  and  _11
REMARK    6  A    between atoms: _11  and  _12
REMARK    7  A    between atoms: _17  and  _18
REMARK    8  A    between atoms: _20  and  _22
REMARK    9  A    between atoms: _22  and  _23
REMARK   10  A    between atoms: _22  and  _25
REMARK   11  A    between atoms: _25  and  _26
REMARK   12  A    between atoms: _31  and  _32
REMARK   13  A    between atoms: _34  and  _36
REMARK   14  A    between atoms: _36  and  _37
REMARK   15  A    between atoms: _36  and  _39
REMARK   16  A    between atoms: _39  and  _40
REMARK   17  A    between atoms: _42  and  _44
REMARK   18  A    between atoms: _44  and  _45
REMARK   19  A    between atoms: _44  and  _47
REMARK   20  A    between atoms: _47  and  _48
REMARK   21  A    between atoms: _51  and  _53
REMARK   22  A    between atoms: _53  and  _54
REMARK   23  A    between atoms: _56  and  _58
REMARK   24  A    between atoms: _58  and  _59
REMARK   25  A    between atoms: _58  and  _61
REMARK   26  A    between atoms: _61  and  _62
REMARK   27  A    between atoms: _67  and  _68
REMARK   28  A    between atoms: _70  and  _72
REMARK   29  A    between atoms: _72  and  _73
REMARK   30  A    between atoms: _72  and  _75
REMARK   31  A    between atoms: _75  and  _76
REMARK   32  A    between atoms: _76  and  _77
REMARK   33  A    between atoms: _79  and  _81
REMARK   34  A    between atoms: _81  and  _82
REMARK   35  A    between atoms: _85  and  _87
REMARK   36  A    between atoms: _87  and  _88
REMARK   37  A    between atoms: _87  and  _90
REMARK   38  A    between atoms: _90  and  _91
REMARK   39  A    between atoms: _96  and  _98
REMARK   40  A    between atoms: _98  and  _99
REMARK   41  A    between atoms: _98  and  _101
REMARK   42  A    between atoms: _101  and  _102
REMARK   43  A    between atoms: _105  and  _107
REMARK   44  A    between atoms: _107  and  _108
REMARK   45  A    between atoms: _107  and  _110
REMARK   46  A    between atoms: _110  and  _111
REMARK   47  A    between atoms: _114  and  _116
REMARK   48  A    between atoms: _116  and  _117
REMARK   49  A    between atoms: _116  and  _119
REMARK   50  A    between atoms: _119  and  _120
REMARK   51  A    between atoms: _122  and  _124
REMARK   52  A    between atoms: _124  and  _125
REMARK   53  A    between atoms: _124  and  _127
REMARK   54  A    between atoms: _127  and  _128
REMARK   55  A    between atoms: _133  and  _135
REMARK   56  A    between atoms: _135  and  _136
REMARK   57  A    between atoms: _139  and  _141
REMARK   58  A    between atoms: _141  and  _142
REMARK   59  A    between atoms: _141  and  _144
REMARK   60  A    between atoms: _144  and  _145
REMARK   61  A    between atoms: _147  and  _149
REMARK   62  A    between atoms: _149  and  _150
REMARK   63  A    between atoms: _149  and  _152
REMARK   64  A    between atoms: _152  and  _153
REMARK   65  A    between atoms: _156  and  _158
REMARK   66  A    between atoms: _158  and  _159
REMARK   67  A    between atoms: _158  and  _161
REMARK   68  A    between atoms: _161  and  _162
REMARK   69  A    between atoms: _165  and  _167
REMARK   70  A    between atoms: _167  and  _168
REMARK   71  A    between atoms: _167  and  _170
REMARK   72  A    between atoms: _170  and  _171
REMARK   73  A    between atoms: _171  and  _172
REMARK   74  A    between atoms: _175  and  _177
REMARK   75  A    between atoms: _177  and  _178
REMARK   76  A    between atoms: _180  and  _182
REMARK   77  A    between atoms: _182  and  _183
REMARK   78  A    between atoms: _182  and  _185
REMARK   79  A    between atoms: _188  and  _190
REMARK   80  A    between atoms: _190  and  _191
REMARK   81  A    between atoms: _190  and  _193
REMARK   82  A    between atoms: _193  and  _194
REMARK   83  A    between atoms: _199  and  _200
REMARK   84  A    between atoms: _202  and  _204
REMARK   85  A    between atoms: _204  and  _205
REMARK   86  A    between atoms: _204  and  _207
REMARK   87  A    between atoms: _207  and  _208
REMARK   88  A    between atoms: _210  and  _212
REMARK   89  A    between atoms: _212  and  _213
REMARK   90  A    between atoms: _212  and  _215
REMARK   91  A    between atoms: _215  and  _216
REMARK   92  A    between atoms: _216  and  _217
REMARK   93  A    between atoms: _219  and  _221
REMARK   94  A    between atoms: _221  and  _222
REMARK   95  A    between atoms: _221  and  _224
REMARK   96  A    between atoms: _224  and  _225
REMARK   97  A    between atoms: _228  and  _230
REMARK   98  A    between atoms: _230  and  _231
REMARK   99  A    between atoms: _230  and  _233
REMARK  100  A    between atoms: _233  and  _234
REMARK  101  A    between atoms: _234  and  _235
REMARK  102  A    between atoms: _238  and  _240
REMARK  103  A    between atoms: _240  and  _241
REMARK  104  A    between atoms: _244  and  _246
REMARK  105  A    between atoms: _246  and  _247
REMARK  106  A    between atoms: _246  and  _249
REMARK  107  A    between atoms: _249  and  _250
REMARK  108  A    between atoms: _255  and  _257
REMARK  109  A    between atoms: _257  and  _258
REMARK  110  A    between atoms: _257  and  _260
REMARK  111  A    between atoms: _260  and  _261
REMARK  112  A    between atoms: _263  and  _265
REMARK  113  A    between atoms: _265  and  _266
REMARK  114  A    between atoms: _265  and  _268
REMARK  115  A    between atoms: _271  and  _273
REMARK  116  A    between atoms: _273  and  _274
REMARK  117  A    between atoms: _276  and  _278
REMARK  118  A    between atoms: _278  and  _279
REMARK  119  A    between atoms: _278  and  _281
REMARK  120  A    between atoms: _281  and  _282
REMARK  121  A    between atoms: _285  and  _287
REMARK  122  A    between atoms: _287  and  _288
REMARK  123  A    between atoms: _287  and  _290
REMARK  124  A    between atoms: _290  and  _291
REMARK  125  A    between atoms: _297  and  _299
REMARK  126  A    between atoms: _299  and  _300
REMARK  127  A    between atoms: _299  and  _302
REMARK  128  A    between atoms: _302  and  _303
REMARK  129  A    between atoms: _305  and  _307
REMARK  130  A    between atoms: _307  and  _308
REMARK  131  A    between atoms: _307  and  _310
REMARK  132  A    between atoms: _310  and  _311
REMARK  133  A    between atoms: _311  and  _312
REMARK  134  A    between atoms: _312  and  _313
REMARK  135  A    between atoms: _313  and  _314
REMARK  136  A    between atoms: _318  and  _320
REMARK  137  A    between atoms: _320  and  _321
REMARK  138  A    between atoms: _320  and  _323
REMARK  139  A    between atoms: _323  and  _324
REMARK  140  A    between atoms: _327  and  _329
REMARK  141  A    between atoms: _329  and  _330
REMARK  142  A    between atoms: _329  and  _332
REMARK  143  A    between atoms: _335  and  _337
REMARK  144  A    between atoms: _337  and  _338
REMARK  145  A    between atoms: _340  and  _342
REMARK  146  A    between atoms: _342  and  _343
REMARK  147  A    between atoms: _345  and  _347
REMARK  148  A    between atoms: _347  and  _348
REMARK  149  A    between atoms: _347  and  _350
REMARK  150  A    between atoms: _350  and  _351
REMARK  151  A    between atoms: _357  and  _359
REMARK  152  A    between atoms: _359  and  _360
REMARK  153  A    between atoms: _359  and  _362
REMARK  154  A    between atoms: _362  and  _363
REMARK  155  A    between atoms: _366  and  _368
REMARK  156  A    between atoms: _368  and  _369
REMARK  157  A    between atoms: _368  and  _371
REMARK  158  A    between atoms: _371  and  _372
REMARK  159  A    between atoms: _377  and  _379
REMARK  160  A    between atoms: _379  and  _380
REMARK  161  A    between atoms: _379  and  _382
REMARK  162  A    between atoms: _382  and  _383
REMARK  163  A    between atoms: _383  and  _384
REMARK  164  A    between atoms: _384  and  _385
REMARK  165  A    between atoms: _394  and  _396
REMARK  166  A    between atoms: _396  and  _397
REMARK  167  A    between atoms: _396  and  _399
REMARK  168  A    between atoms: _399  and  _400
REMARK  169  A    between atoms: _403  and  _405
REMARK  170  A    between atoms: _405  and  _406
REMARK  171  A    between atoms: _405  and  _408
REMARK  172  A    between atoms: _408  and  _409
REMARK  173  A    between atoms: _414  and  _415
REMARK  174  A    between atoms: _417  and  _419
REMARK  175  A    between atoms: _419  and  _420
REMARK  176  A    between atoms: _422  and  _424
REMARK  177  A    between atoms: _424  and  _425
REMARK  178  A    between atoms: _424  and  _427
REMARK  179  A    between atoms: _427  and  _428
REMARK  180  A    between atoms: _430  and  _432
REMARK  181  A    between atoms: _432  and  _433
REMARK  182  A    between atoms: _432  and  _435
REMARK  183  A    between atoms: _435  and  _436
REMARK  184  A    between atoms: _436  and  _437
REMARK  185  A    between atoms: _437  and  _438
REMARK  186  A    between atoms: _447  and  _449
REMARK  187  A    between atoms: _449  and  _450
REMARK  188  A    between atoms: _449  and  _452
REMARK  189  A    between atoms: _452  and  _453
REMARK  190  A    between atoms: _453  and  _454
REMARK  191  A    between atoms: _456  and  _458
REMARK  192  A    between atoms: _458  and  _459
REMARK  193  A    between atoms: _458  and  _461
REMARK  194  A    between atoms: _461  and  _462
REMARK  195  A    between atoms: _465  and  _467
REMARK  196  A    between atoms: _467  and  _468
REMARK  197  A    between atoms: _467  and  _470
REMARK  198  A    between atoms: _470  and  _471
REMARK  199  A    between atoms: _476  and  _478
REMARK  200  A    between atoms: _478  and  _479
REMARK  201  A    between atoms: _481  and  _483
REMARK  202  A    between atoms: _483  and  _484
REMARK  203  A    between atoms: _483  and  _486
REMARK  204  A    between atoms: _486  and  _487
REMARK  205  A    between atoms: _489  and  _491
REMARK  206  A    between atoms: _491  and  _492
REMARK  207  A    between atoms: _491  and  _494
REMARK  208  A    between atoms: _494  and  _495
REMARK  209  A    between atoms: _495  and  _496
REMARK  210  A    between atoms: _498  and  _500
REMARK  211  A    between atoms: _500  and  _501
REMARK  212  A    between atoms: _500  and  _503
REMARK  213  A    between atoms: _503  and  _504
REMARK  214  A    between atoms: _504  and  _505
REMARK  215  A    between atoms: _505  and  _506
REMARK  216  A    between atoms: _516  and  _517
REMARK  217  A    between atoms: _522  and  _524
REMARK  218  A    between atoms: _524  and  _525
REMARK  219  A    between atoms: _524  and  _527
REMARK  220  A    between atoms: _527  and  _528
REMARK  221  A    between atoms: _533  and  _534
REMARK  222  A    between atoms: _536  and  _538
REMARK  223  A    between atoms: _538  and  _539
REMARK  224  A    between atoms: _538  and  _541
REMARK  225  A    between atoms: _541  and  _542
REMARK  226  A    between atoms: _545  and  _547
REMARK  227  A    between atoms: _547  and  _548
REMARK  228  A    between atoms: _547  and  _550
REMARK  229  A    between atoms: _550  and  _551
REMARK  230  A    between atoms: _557  and  _559
REMARK  231  A    between atoms: _559  and  _560
REMARK  232  A    between atoms: _559  and  _562
REMARK  233  A    between atoms: _562  and  _563
REMARK  234  A    between atoms: _566  and  _568
REMARK  235  A    between atoms: _568  and  _569
REMARK  236  A    between atoms: _572  and  _574
REMARK  237  A    between atoms: _574  and  _575
REMARK  238  A    between atoms: _574  and  _577
REMARK  239  A    between atoms: _577  and  _578
REMARK                            x       y       z     vdW  Elec       q    Type
REMARK                         _______ _______ _______ _____ _____    ______ ____
ROOT
ATOM      1  O   HOH     1      25.297   9.568   6.823  0.00  0.00    +0.000 OA
ENDROOT
TORSDOF 0
REMARK  Name = ../refined-set-2016/2w8w/2w8w_pocket.pdb
REMARK  239 active torsions:
REMARK  status: ('A' for Active; 'I' for Inactive)
REMARK    1  A    between atoms: _1  and  _3
REMARK    2  A    between atoms: _3  and  _4
REMARK    3  A    between atoms: _6  and  _8
REMARK    4  A    between atoms: _8  and  _9
REMARK    5  A    between atoms: _8  and  _11
REMARK    6  A    between atoms: _11  and  _12
REMARK    7  A    between atoms: _17  and  _18
REMARK    8  A    between atoms: _20  and  _22
REMARK    9  A    between atoms: _22  and  _23
REMARK   10  A    between atoms: _22  and  _25
REMARK   11  A    between atoms: _25  and  _26
REMARK   12  A    between atoms: _31  and  _32
REMARK   13  A    between atoms: _34  and  _36
REMARK   14  A    between atoms: _36  and  _37
REMARK   15  A    between atoms: _36  and  _39
REMARK   16  A    between atoms: _39  and  _40
REMARK   17  A    between atoms: _42  and  _44
REMARK   18  A    between atoms: _44  and  _45
REMARK   19  A    between atoms: _44  and  _47
REMARK   20  A    between atoms: _47  and  _48
REMARK   21  A    between atoms: _51  and  _53
REMARK   22  A    between atoms: _53  and  _54
REMARK   23  A    between atoms: _56  and  _58
REMARK   24  A    between atoms: _58  and  _59
REMARK   25  A    between atoms: _58  and  _61
REMARK   26  A    between atoms: _61  and  _62
REMARK   27  A    between atoms: _67  and  _68
REMARK   28  A    between atoms: _70  and  _72
REMARK   29  A    between atoms: _72  and  _73
REMARK   30  A    between atoms: _72  and  _75
REMARK   31  A    between atoms: _75  and  _76
REMARK   32  A    between atoms: _76  and  _77
REMARK   33  A    between atoms: _79  and  _81
REMARK   34  A    between atoms: _81  and  _82
REMARK   35  A    between atoms: _85  and  _87
REMARK   36  A    between atoms: _87  and  _88
REMARK   37  A    between atoms: _87  and  _90
REMARK   38  A    between atoms: _90  and  _91
REMARK   39  A    between atoms: _96  and  _98
REMARK   40  A    between atoms: _98  and  _99
REMARK   41  A    between atoms: _98  and  _101
REMARK   42  A    between atoms: _101  and  _102
REMARK   43  A    between atoms: _105  and  _107
REMARK   44  A    between atoms: _107  and  _108
REMARK   45  A    between atoms: _107  and  _110
REMARK   46  A    between atoms: _110  and  _111
REMARK   47  A    between atoms: _114  and  _116
REMARK   48  A    between atoms: _116  and  _117
REMARK   49  A    between atoms: _116  and  _119
REMARK   50  A    between atoms: _119  and  _120
REMARK   51  A    between atoms: _122  and  _124
REMARK   52  A    between atoms: _124  and  _125
REMARK   53  A    between atoms: _124  and  _127
REMARK   54  A    between atoms: _127  and  _128
REMARK   55  A    between atoms: _133  and  _135
REMARK   56  A    between atoms: _135  and  _136
REMARK   57  A    between atoms: _139  and  _141
REMARK   58  A    between atoms: _141  and  _142
REMARK   59  A    between atoms: _141  and  _144
REMARK   60  A    between atoms: _144  and  _145
REMARK   61  A    between atoms: _147  and  _149
REMARK   62  A    between atoms: _149  and  _150
REMARK   63  A    between atoms: _149  and  _152
REMARK   64  A    between atoms: _152  and  _153
REMARK   65  A    between atoms: _156  and  _158
REMARK   66  A    between atoms: _158  and  _159
REMARK   67  A    between atoms: _158  and  _161
REMARK   68  A    between atoms: _161  and  _162
REMARK   69  A    between atoms: _165  and  _167
REMARK   70  A    between atoms: _167  and  _168
REMARK   71  A    between atoms: _167  and  _170
REMARK   72  A    between atoms: _170  and  _171
REMARK   73  A    between atoms: _171  and  _172
REMARK   74  A    between atoms: _175  and  _177
REMARK   75  A    between atoms: _177  and  _178
REMARK   76  A    between atoms: _180  and  _182
REMARK   77  A    between atoms: _182  and  _183
REMARK   78  A    between atoms: _182  and  _185
REMARK   79  A    between atoms: _188  and  _190
REMARK   80  A    between atoms: _190  and  _191
REMARK   81  A    between atoms: _190  and  _193
REMARK   82  A    between atoms: _193  and  _194
REMARK   83  A    between atoms: _199  and  _200
REMARK   84  A    between atoms: _202  and  _204
REMARK   85  A    between atoms: _204  and  _205
REMARK   86  A    between atoms: _204  and  _207
REMARK   87  A    between atoms: _207  and  _208
REMARK   88  A    between atoms: _210  and  _212
REMARK   89  A    between atoms: _212  and  _213
REMARK   90  A    between atoms: _212  and  _215
REMARK   91  A    between atoms: _215  and  _216
REMARK   92  A    between atoms: _216  and  _217
REMARK   93  A    between atoms: _219  and  _221
REMARK   94  A    between atoms: _221  and  _222
REMARK   95  A    between atoms: _221  and  _224
REMARK   96  A    between atoms: _224  and  _225
REMARK   97  A    between atoms: _228  and  _230
REMARK   98  A    between atoms: _230  and  _231
REMARK   99  A    between atoms: _230  and  _233
REMARK  100  A    between atoms: _233  and  _234
REMARK  101  A    between atoms: _234  and  _235
REMARK  102  A    between atoms: _238  and  _240
REMARK  103  A    between atoms: _240  and  _241
REMARK  104  A    between atoms: _244  and  _246
REMARK  105  A    between atoms: _246  and  _247
REMARK  106  A    between atoms: _246  and  _249
REMARK  107  A    between atoms: _249  and  _250
REMARK  108  A    between atoms: _255  and  _257
REMARK  109  A    between atoms: _257  and  _258
REMARK  110  A    between atoms: _257  and  _260
REMARK  111  A    between atoms: _260  and  _261
REMARK  112  A    between atoms: _263  and  _265
REMARK  113  A    between atoms: _265  and  _266
REMARK  114  A    between atoms: _265  and  _268
REMARK  115  A    between atoms: _271  and  _273
REMARK  116  A    between atoms: _273  and  _274
REMARK  117  A    between atoms: _276  and  _278
REMARK  118  A    between atoms: _278  and  _279
REMARK  119  A    between atoms: _278  and  _281
REMARK  120  A    between atoms: _281  and  _282
REMARK  121  A    between atoms: _285  and  _287
REMARK  122  A    between atoms: _287  and  _288
REMARK  123  A    between atoms: _287  and  _290
REMARK  124  A    between atoms: _290  and  _291
REMARK  125  A    between atoms: _297  and  _299
REMARK  126  A    between atoms: _299  and  _300
REMARK  127  A    between atoms: _299  and  _302
REMARK  128  A    between atoms: _302  and  _303
REMARK  129  A    between atoms: _305  and  _307
REMARK  130  A    between atoms: _307  and  _308
REMARK  131  A    between atoms: _307  and  _310
REMARK  132  A    between atoms: _310  and  _311
REMARK  133  A    between atoms: _311  and  _312
REMARK  134  A    between atoms: _312  and  _313
REMARK  135  A    between atoms: _313  and  _314
REMARK  136  A    between atoms: _318  and  _320
REMARK  137  A    between atoms: _320  and  _321
REMARK  138  A    between atoms: _320  and  _323
REMARK  139  A    between atoms: _323  and  _324
REMARK  140  A    between atoms: _327  and  _329
REMARK  141  A    between atoms: _329  and  _330
REMARK  142  A    between atoms: _329  and  _332
REMARK  143  A    between atoms: _335  and  _337
REMARK  144  A    between atoms: _337  and  _338
REMARK  145  A    between atoms: _340  and  _342
REMARK  146  A    between atoms: _342  and  _343
REMARK  147  A    between atoms: _345  and  _347
REMARK  148  A    between atoms: _347  and  _348
REMARK  149  A    between atoms: _347  and  _350
REMARK  150  A    between atoms: _350  and  _351
REMARK  151  A    between atoms: _357  and  _359
REMARK  152  A    between atoms: _359  and  _360
REMARK  153  A    between atoms: _359  and  _362
REMARK  154  A    between atoms: _362  and  _363
REMARK  155  A    between atoms: _366  and  _368
REMARK  156  A    between atoms: _368  and  _369
REMARK  157  A    between atoms: _368  and  _371
REMARK  158  A    between atoms: _371  and  _372
REMARK  159  A    between atoms: _377  and  _379
REMARK  160  A    between atoms: _379  and  _380
REMARK  161  A    between atoms: _379  and  _382
REMARK  162  A    between atoms: _382  and  _383
REMARK  163  A    between atoms: _383  and  _384
REMARK  164  A    between atoms: _384  and  _385
REMARK  165  A    between atoms: _394  and  _396
REMARK  166  A    between atoms: _396  and  _397
REMARK  167  A    between atoms: _396  and  _399
REMARK  168  A    between atoms: _399  and  _400
REMARK  169  A    between atoms: _403  and  _405
REMARK  170  A    between atoms: _405  and  _406
REMARK  171  A    between atoms: _405  and  _408
REMARK  172  A    between atoms: _408  and  _409
REMARK  173  A    between atoms: _414  and  _415
REMARK  174  A    between atoms: _417  and  _419
REMARK  175  A    between atoms: _419  and  _420
REMARK  176  A    between atoms: _422  and  _424
REMARK  177  A    between atoms: _424  and  _425
REMARK  178  A    between atoms: _424  and  _427
REMARK  179  A    between atoms: _427  and  _428
REMARK  180  A    between atoms: _430  and  _432
REMARK  181  A    between atoms: _432  and  _433
REMARK  182  A    between atoms: _432  and  _435
REMARK  183  A    between atoms: _435  and  _436
REMARK  184  A    between atoms: _436  and  _437
REMARK  185  A    between atoms: _437  and  _438
REMARK  186  A    between atoms: _447  and  _449
REMARK  187  A    between atoms: _449  and  _450
REMARK  188  A    between atoms: _449  and  _452
REMARK  189  A    between atoms: _452  and  _453
REMARK  190  A    between atoms: _453  and  _454
REMARK  191  A    between atoms: _456  and  _458
REMARK  192  A    between atoms: _458  and  _459
REMARK  193  A    between atoms: _458  and  _461
REMARK  194  A    between atoms: _461  and  _462
REMARK  195  A    between atoms: _465  and  _467
REMARK  196  A    between atoms: _467  and  _468
REMARK  197  A    between atoms: _467  and  _470
REMARK  198  A    between atoms: _470  and  _471
REMARK  199  A    between atoms: _476  and  _478
REMARK  200  A    between atoms: _478  and  _479
REMARK  201  A    between atoms: _481  and  _483
REMARK  202  A    between atoms: _483  and  _484
REMARK  203  A    between atoms: _483  and  _486
REMARK  204  A    between atoms: _486  and  _487
REMARK  205  A    between atoms: _489  and  _491
REMARK  206  A    between atoms: _491  and  _492
REMARK  207  A    between atoms: _491  and  _494
REMARK  208  A    between atoms: _494  and  _495
REMARK  209  A    between atoms: _495  and  _496
REMARK  210  A    between atoms: _498  and  _500
REMARK  211  A    between atoms: _500  and  _501
REMARK  212  A    between atoms: _500  and  _503
REMARK  213  A    between atoms: _503  and  _504
REMARK  214  A    between atoms: _504  and  _505
REMARK  215  A    between atoms: _505  and  _506
REMARK  216  A    between atoms: _516  and  _517
REMARK  217  A    between atoms: _522  and  _524
REMARK  218  A    between atoms: _524  and  _525
REMARK  219  A    between atoms: _524  and  _527
REMARK  220  A    between atoms: _527  and  _528
REMARK  221  A    between atoms: _533  and  _534
REMARK  222  A    between atoms: _536  and  _538
REMARK  223  A    between atoms: _538  and  _539
REMARK  224  A    between atoms: _538  and  _541
REMARK  225  A    between atoms: _541  and  _542
REMARK  226  A    between atoms: _545  and  _547
REMARK  227  A    between atoms: _547  and  _548
REMARK  228  A    between atoms: _547  and  _550
REMARK  229  A    between atoms: _550  and  _551
REMARK  230  A    between atoms: _557  and  _559
REMARK  231  A    between atoms: _559  and  _560
REMARK  232  A    between atoms: _559  and  _562
REMARK  233  A    between atoms: _562  and  _563
REMARK  234  A    between atoms: _566  and  _568
REMARK  235  A    between atoms: _568  and  _569
REMARK  236  A    between atoms: _572  and  _574
REMARK  237  A    between atoms: _574  and  _575
REMARK  238  A    between atoms: _574  and  _577
REMARK  239  A    between atoms: _577  and  _578
REMARK                            x       y       z     vdW  Elec       q    Type
REMARK                         _______ _______ _______ _____ _____    ______ ____
ROOT
ATOM      1  O   HOH     1      21.369  14.550  12.384  0.00  0.00    +0.000 OA
ENDROOT
TORSDOF 0
REMARK  Name = ../refined-set-2016/2w8w/2w8w_pocket.pdb
REMARK  239 active torsions:
REMARK  status: ('A' for Active; 'I' for Inactive)
REMARK    1  A    between atoms: _1  and  _3
REMARK    2  A    between atoms: _3  and  _4
REMARK    3  A    between atoms: _6  and  _8
REMARK    4  A    between atoms: _8  and  _9
REMARK    5  A    between atoms: _8  and  _11
REMARK    6  A    between atoms: _11  and  _12
REMARK    7  A    between atoms: _17  and  _18
REMARK    8  A    between atoms: _20  and  _22
REMARK    9  A    between atoms: _22  and  _23
REMARK   10  A    between atoms: _22  and  _25
REMARK   11  A    between atoms: _25  and  _26
REMARK   12  A    between atoms: _31  and  _32
REMARK   13  A    between atoms: _34  and  _36
REMARK   14  A    between atoms: _36  and  _37
REMARK   15  A    between atoms: _36  and  _39
REMARK   16  A    between atoms: _39  and  _40
REMARK   17  A    between atoms: _42  and  _44
REMARK   18  A    between atoms: _44  and  _45
REMARK   19  A    between atoms: _44  and  _47
REMARK   20  A    between atoms: _47  and  _48
REMARK   21  A    between atoms: _51  and  _53
REMARK   22  A    between atoms: _53  and  _54
REMARK   23  A    between atoms: _56  and  _58
REMARK   24  A    between atoms: _58  and  _59
REMARK   25  A    between atoms: _58  and  _61
REMARK   26  A    between atoms: _61  and  _62
REMARK   27  A    between atoms: _67  and  _68
REMARK   28  A    between atoms: _70  and  _72
REMARK   29  A    between atoms: _72  and  _73
REMARK   30  A    between atoms: _72  and  _75
REMARK   31  A    between atoms: _75  and  _76
REMARK   32  A    between atoms: _76  and  _77
REMARK   33  A    between atoms: _79  and  _81
REMARK   34  A    between atoms: _81  and  _82
REMARK   35  A    between atoms: _85  and  _87
REMARK   36  A    between atoms: _87  and  _88
REMARK   37  A    between atoms: _87  and  _90
REMARK   38  A    between atoms: _90  and  _91
REMARK   39  A    between atoms: _96  and  _98
REMARK   40  A    between atoms: _98  and  _99
REMARK   41  A    between atoms: _98  and  _101
REMARK   42  A    between atoms: _101  and  _102
REMARK   43  A    between atoms: _105  and  _107
REMARK   44  A    between atoms: _107  and  _108
REMARK   45  A    between atoms: _107  and  _110
REMARK   46  A    between atoms: _110  and  _111
REMARK   47  A    between atoms: _114  and  _116
REMARK   48  A    between atoms: _116  and  _117
REMARK   49  A    between atoms: _116  and  _119
REMARK   50  A    between atoms: _119  and  _120
REMARK   51  A    between atoms: _122  and  _124
REMARK   52  A    between atoms: _124  and  _125
REMARK   53  A    between atoms: _124  and  _127
REMARK   54  A    between atoms: _127  and  _128
REMARK   55  A    between atoms: _133  and  _135
REMARK   56  A    between atoms: _135  and  _136
REMARK   57  A    between atoms: _139  and  _141
REMARK   58  A    between atoms: _141  and  _142
REMARK   59  A    between atoms: _141  and  _144
REMARK   60  A    between atoms: _144  and  _145
REMARK   61  A    between atoms: _147  and  _149
REMARK   62  A    between atoms: _149  and  _150
REMARK   63  A    between atoms: _149  and  _152
REMARK   64  A    between atoms: _152  and  _153
REMARK   65  A    between atoms: _156  and  _158
REMARK   66  A    between atoms: _158  and  _159
REMARK   67  A    between atoms: _158  and  _161
REMARK   68  A    between atoms: _161  and  _162
REMARK   69  A    between atoms: _165  and  _167
REMARK   70  A    between atoms: _167  and  _168
REMARK   71  A    between atoms: _167  and  _170
REMARK   72  A    between atoms: _170  and  _171
REMARK   73  A    between atoms: _171  and  _172
REMARK   74  A    between atoms: _175  and  _177
REMARK   75  A    between atoms: _177  and  _178
REMARK   76  A    between atoms: _180  and  _182
REMARK   77  A    between atoms: _182  and  _183
REMARK   78  A    between atoms: _182  and  _185
REMARK   79  A    between atoms: _188  and  _190
REMARK   80  A    between atoms: _190  and  _191
REMARK   81  A    between atoms: _190  and  _193
REMARK   82  A    between atoms: _193  and  _194
REMARK   83  A    between atoms: _199  and  _200
REMARK   84  A    between atoms: _202  and  _204
REMARK   85  A    between atoms: _204  and  _205
REMARK   86  A    between atoms: _204  and  _207
REMARK   87  A    between atoms: _207  and  _208
REMARK   88  A    between atoms: _210  and  _212
REMARK   89  A    between atoms: _212  and  _213
REMARK   90  A    between atoms: _212  and  _215
REMARK   91  A    between atoms: _215  and  _216
REMARK   92  A    between atoms: _216  and  _217
REMARK   93  A    between atoms: _219  and  _221
REMARK   94  A    between atoms: _221  and  _222
REMARK   95  A    between atoms: _221  and  _224
REMARK   96  A    between atoms: _224  and  _225
REMARK   97  A    between atoms: _228  and  _230
REMARK   98  A    between atoms: _230  and  _231
REMARK   99  A    between atoms: _230  and  _233
REMARK  100  A    between atoms: _233  and  _234
REMARK  101  A    between atoms: _234  and  _235
REMARK  102  A    between atoms: _238  and  _240
REMARK  103  A    between atoms: _240  and  _241
REMARK  104  A    between atoms: _244  and  _246
REMARK  105  A    between atoms: _246  and  _247
REMARK  106  A    between atoms: _246  and  _249
REMARK  107  A    between atoms: _249  and  _250
REMARK  108  A    between atoms: _255  and  _257
REMARK  109  A    between atoms: _257  and  _258
REMARK  110  A    between atoms: _257  and  _260
REMARK  111  A    between atoms: _260  and  _261
REMARK  112  A    between atoms: _263  and  _265
REMARK  113  A    between atoms: _265  and  _266
REMARK  114  A    between atoms: _265  and  _268
REMARK  115  A    between atoms: _271  and  _273
REMARK  116  A    between atoms: _273  and  _274
REMARK  117  A    between atoms: _276  and  _278
REMARK  118  A    between atoms: _278  and  _279
REMARK  119  A    between atoms: _278  and  _281
REMARK  120  A    between atoms: _281  and  _282
REMARK  121  A    between atoms: _285  and  _287
REMARK  122  A    between atoms: _287  and  _288
REMARK  123  A    between atoms: _287  and  _290
REMARK  124  A    between atoms: _290  and  _291
REMARK  125  A    between atoms: _297  and  _299
REMARK  126  A    between atoms: _299  and  _300
REMARK  127  A    between atoms: _299  and  _302
REMARK  128  A    between atoms: _302  and  _303
REMARK  129  A    between atoms: _305  and  _307
REMARK  130  A    between atoms: _307  and  _308
REMARK  131  A    between atoms: _307  and  _310
REMARK  132  A    between atoms: _310  and  _311
REMARK  133  A    between atoms: _311  and  _312
REMARK  134  A    between atoms: _312  and  _313
REMARK  135  A    between atoms: _313  and  _314
REMARK  136  A    between atoms: _318  and  _320
REMARK  137  A    between atoms: _320  and  _321
REMARK  138  A    between atoms: _320  and  _323
REMARK  139  A    between atoms: _323  and  _324
REMARK  140  A    between atoms: _327  and  _329
REMARK  141  A    between atoms: _329  and  _330
REMARK  142  A    between atoms: _329  and  _332
REMARK  143  A    between atoms: _335  and  _337
REMARK  144  A    between atoms: _337  and  _338
REMARK  145  A    between atoms: _340  and  _342
REMARK  146  A    between atoms: _342  and  _343
REMARK  147  A    between atoms: _345  and  _347
REMARK  148  A    between atoms: _347  and  _348
REMARK  149  A    between atoms: _347  and  _350
REMARK  150  A    between atoms: _350  and  _351
REMARK  151  A    between atoms: _357  and  _359
REMARK  152  A    between atoms: _359  and  _360
REMARK  153  A    between atoms: _359  and  _362
REMARK  154  A    between atoms: _362  and  _363
REMARK  155  A    between atoms: _366  and  _368
REMARK  156  A    between atoms: _368  and  _369
REMARK  157  A    between atoms: _368  and  _371
REMARK  158  A    between atoms: _371  and  _372
REMARK  159  A    between atoms: _377  and  _379
REMARK  160  A    between atoms: _379  and  _380
REMARK  161  A    between atoms: _379  and  _382
REMARK  162  A    between atoms: _382  and  _383
REMARK  163  A    between atoms: _383  and  _384
REMARK  164  A    between atoms: _384  and  _385
REMARK  165  A    between atoms: _394  and  _396
REMARK  166  A    between atoms: _396  and  _397
REMARK  167  A    between atoms: _396  and  _399
REMARK  168  A    between atoms: _399  and  _400
REMARK  169  A    between atoms: _403  and  _405
REMARK  170  A    between atoms: _405  and  _406
REMARK  171  A    between atoms: _405  and  _408
REMARK  172  A    between atoms: _408  and  _409
REMARK  173  A    between atoms: _414  and  _415
REMARK  174  A    between atoms: _417  and  _419
REMARK  175  A    between atoms: _419  and  _420
REMARK  176  A    between atoms: _422  and  _424
REMARK  177  A    between atoms: _424  and  _425
REMARK  178  A    between atoms: _424  and  _427
REMARK  179  A    between atoms: _427  and  _428
REMARK  180  A    between atoms: _430  and  _432
REMARK  181  A    between atoms: _432  and  _433
REMARK  182  A    between atoms: _432  and  _435
REMARK  183  A    between atoms: _435  and  _436
REMARK  184  A    between atoms: _436  and  _437
REMARK  185  A    between atoms: _437  and  _438
REMARK  186  A    between atoms: _447  and  _449
REMARK  187  A    between atoms: _449  and  _450
REMARK  188  A    between atoms: _449  and  _452
REMARK  189  A    between atoms: _452  and  _453
REMARK  190  A    between atoms: _453  and  _454
REMARK  191  A    between atoms: _456  and  _458
REMARK  192  A    between atoms: _458  and  _459
REMARK  193  A    between atoms: _458  and  _461
REMARK  194  A    between atoms: _461  and  _462
REMARK  195  A    between atoms: _465  and  _467
REMARK  196  A    between atoms: _467  and  _468
REMARK  197  A    between atoms: _467  and  _470
REMARK  198  A    between atoms: _470  and  _471
REMARK  199  A    between atoms: _476  and  _478
REMARK  200  A    between atoms: _478  and  _479
REMARK  201  A    between atoms: _481  and  _483
REMARK  202  A    between atoms: _483  and  _484
REMARK  203  A    between atoms: _483  and  _486
REMARK  204  A    between atoms: _486  and  _487
REMARK  205  A    between atoms: _489  and  _491
REMARK  206  A    between atoms: _491  and  _492
REMARK  207  A    between atoms: _491  and  _494
REMARK  208  A    between atoms: _494  and  _495
REMARK  209  A    between atoms: _495  and  _496
REMARK  210  A    between atoms: _498  and  _500
REMARK  211  A    between atoms: _500  and  _501
REMARK  212  A    between atoms: _500  and  _503
REMARK  213  A    between atoms: _503  and  _504
REMARK  214  A    between atoms: _504  and  _505
REMARK  215  A    between atoms: _505  and  _506
REMARK  216  A    between atoms: _516  and  _517
REMARK  217  A    between atoms: _522  and  _524
REMARK  218  A    between atoms: _524  and  _525
REMARK  219  A    between atoms: _524  and  _527
REMARK  220  A    between atoms: _527  and  _528
REMARK  221  A    between atoms: _533  and  _534
REMARK  222  A    between atoms: _536  and  _538
REMARK  223  A    between atoms: _538  and  _539
REMARK  224  A    between atoms: _538  and  _541
REMARK  225  A    between atoms: _541  and  _542
REMARK  226  A    between atoms: _545  and  _547
REMARK  227  A    between atoms: _547  and  _548
REMARK  228  A    between atoms: _547  and  _550
REMARK  229  A    between atoms: _550  and  _551
REMARK  230  A    between atoms: _557  and  _559
REMARK  231  A    between atoms: _559  and  _560
REMARK  232  A    between atoms: _559  and  _562
REMARK  233  A    between atoms: _562  and  _563
REMARK  234  A    between atoms: _566  and  _568
REMARK  235  A    between atoms: _568  and  _569
REMARK  236  A    between atoms: _572  and  _574
REMARK  237  A    between atoms: _574  and  _575
REMARK  238  A    between atoms: _574  and  _577
REMARK  239  A    between atoms: _577  and  _578
REMARK                            x       y       z     vdW  Elec       q    Type
REMARK                         _______ _______ _______ _____ _____    ______ ____
ROOT
ATOM      1  O   HOH     1      25.495  22.754  16.076  0.00  0.00    +0.000 OA
ENDROOT
TORSDOF 0
REMARK  Name = ../refined-set-2016/2w8w/2w8w_pocket.pdb
REMARK  239 active torsions:
REMARK  status: ('A' for Active; 'I' for Inactive)
REMARK    1  A    between atoms: _1  and  _3
REMARK    2  A    between atoms: _3  and  _4
REMARK    3  A    between atoms: _6  and  _8
REMARK    4  A    between atoms: _8  and  _9
REMARK    5  A    between atoms: _8  and  _11
REMARK    6  A    between atoms: _11  and  _12
REMARK    7  A    between atoms: _17  and  _18
REMARK    8  A    between atoms: _20  and  _22
REMARK    9  A    between atoms: _22  and  _23
REMARK   10  A    between atoms: _22  and  _25
REMARK   11  A    between atoms: _25  and  _26
REMARK   12  A    between atoms: _31  and  _32
REMARK   13  A    between atoms: _34  and  _36
REMARK   14  A    between atoms: _36  and  _37
REMARK   15  A    between atoms: _36  and  _39
REMARK   16  A    between atoms: _39  and  _40
REMARK   17  A    between atoms: _42  and  _44
REMARK   18  A    between atoms: _44  and  _45
REMARK   19  A    between atoms: _44  and  _47
REMARK   20  A    between atoms: _47  and  _48
REMARK   21  A    between atoms: _51  and  _53
REMARK   22  A    between atoms: _53  and  _54
REMARK   23  A    between atoms: _56  and  _58
REMARK   24  A    between atoms: _58  and  _59
REMARK   25  A    between atoms: _58  and  _61
REMARK   26  A    between atoms: _61  and  _62
REMARK   27  A    between atoms: _67  and  _68
REMARK   28  A    between atoms: _70  and  _72
REMARK   29  A    between atoms: _72  and  _73
REMARK   30  A    between atoms: _72  and  _75
REMARK   31  A    between atoms: _75  and  _76
REMARK   32  A    between atoms: _76  and  _77
REMARK   33  A    between atoms: _79  and  _81
REMARK   34  A    between atoms: _81  and  _82
REMARK   35  A    between atoms: _85  and  _87
REMARK   36  A    between atoms: _87  and  _88
REMARK   37  A    between atoms: _87  and  _90
REMARK   38  A    between atoms: _90  and  _91
REMARK   39  A    between atoms: _96  and  _98
REMARK   40  A    between atoms: _98  and  _99
REMARK   41  A    between atoms: _98  and  _101
REMARK   42  A    between atoms: _101  and  _102
REMARK   43  A    between atoms: _105  and  _107
REMARK   44  A    between atoms: _107  and  _108
REMARK   45  A    between atoms: _107  and  _110
REMARK   46  A    between atoms: _110  and  _111
REMARK   47  A    between atoms: _114  and  _116
REMARK   48  A    between atoms: _116  and  _117
REMARK   49  A    between atoms: _116  and  _119
REMARK   50  A    between atoms: _119  and  _120
REMARK   51  A    between atoms: _122  and  _124
REMARK   52  A    between atoms: _124  and  _125
REMARK   53  A    between atoms: _124  and  _127
REMARK   54  A    between atoms: _127  and  _128
REMARK   55  A    between atoms: _133  and  _135
REMARK   56  A    between atoms: _135  and  _136
REMARK   57  A    between atoms: _139  and  _141
REMARK   58  A    between atoms: _141  and  _142
REMARK   59  A    between atoms: _141  and  _144
REMARK   60  A    between atoms: _144  and  _145
REMARK   61  A    between atoms: _147  and  _149
REMARK   62  A    between atoms: _149  and  _150
REMARK   63  A    between atoms: _149  and  _152
REMARK   64  A    between atoms: _152  and  _153
REMARK   65  A    between atoms: _156  and  _158
REMARK   66  A    between atoms: _158  and  _159
REMARK   67  A    between atoms: _158  and  _161
REMARK   68  A    between atoms: _161  and  _162
REMARK   69  A    between atoms: _165  and  _167
REMARK   70  A    between atoms: _167  and  _168
REMARK   71  A    between atoms: _167  and  _170
REMARK   72  A    between atoms: _170  and  _171
REMARK   73  A    between atoms: _171  and  _172
REMARK   74  A    between atoms: _175  and  _177
REMARK   75  A    between atoms: _177  and  _178
REMARK   76  A    between atoms: _180  and  _182
REMARK   77  A    between atoms: _182  and  _183
REMARK   78  A    between atoms: _182  and  _185
REMARK   79  A    between atoms: _188  and  _190
REMARK   80  A    between atoms: _190  and  _191
REMARK   81  A    between atoms: _190  and  _193
REMARK   82  A    between atoms: _193  and  _194
REMARK   83  A    between atoms: _199  and  _200
REMARK   84  A    between atoms: _202  and  _204
REMARK   85  A    between atoms: _204  and  _205
REMARK   86  A    between atoms: _204  and  _207
REMARK   87  A    between atoms: _207  and  _208
REMARK   88  A    between atoms: _210  and  _212
REMARK   89  A    between atoms: _212  and  _213
REMARK   90  A    between atoms: _212  and  _215
REMARK   91  A    between atoms: _215  and  _216
REMARK   92  A    between atoms: _216  and  _217
REMARK   93  A    between atoms: _219  and  _221
REMARK   94  A    between atoms: _221  and  _222
REMARK   95  A    between atoms: _221  and  _224
REMARK   96  A    between atoms: _224  and  _225
REMARK   97  A    between atoms: _228  and  _230
REMARK   98  A    between atoms: _230  and  _231
REMARK   99  A    between atoms: _230  and  _233
REMARK  100  A    between atoms: _233  and  _234
REMARK  101  A    between atoms: _234  and  _235
REMARK  102  A    between atoms: _238  and  _240
REMARK  103  A    between atoms: _240  and  _241
REMARK  104  A    between atoms: _244  and  _246
REMARK  105  A    between atoms: _246  and  _247
REMARK  106  A    between atoms: _246  and  _249
REMARK  107  A    between atoms: _249  and  _250
REMARK  108  A    between atoms: _255  and  _257
REMARK  109  A    between atoms: _257  and  _258
REMARK  110  A    between atoms: _257  and  _260
REMARK  111  A    between atoms: _260  and  _261
REMARK  112  A    between atoms: _263  and  _265
REMARK  113  A    between atoms: _265  and  _266
REMARK  114  A    between atoms: _265  and  _268
REMARK  115  A    between atoms: _271  and  _273
REMARK  116  A    between atoms: _273  and  _274
REMARK  117  A    between atoms: _276  and  _278
REMARK  118  A    between atoms: _278  and  _279
REMARK  119  A    between atoms: _278  and  _281
REMARK  120  A    between atoms: _281  and  _282
REMARK  121  A    between atoms: _285  and  _287
REMARK  122  A    between atoms: _287  and  _288
REMARK  123  A    between atoms: _287  and  _290
REMARK  124  A    between atoms: _290  and  _291
REMARK  125  A    between atoms: _297  and  _299
REMARK  126  A    between atoms: _299  and  _300
REMARK  127  A    between atoms: _299  and  _302
REMARK  128  A    between atoms: _302  and  _303
REMARK  129  A    between atoms: _305  and  _307
REMARK  130  A    between atoms: _307  and  _308
REMARK  131  A    between atoms: _307  and  _310
REMARK  132  A    between atoms: _310  and  _311
REMARK  133  A    between atoms: _311  and  _312
REMARK  134  A    between atoms: _312  and  _313
REMARK  135  A    between atoms: _313  and  _314
REMARK  136  A    between atoms: _318  and  _320
REMARK  137  A    between atoms: _320  and  _321
REMARK  138  A    between atoms: _320  and  _323
REMARK  139  A    between atoms: _323  and  _324
REMARK  140  A    between atoms: _327  and  _329
REMARK  141  A    between atoms: _329  and  _330
REMARK  142  A    between atoms: _329  and  _332
REMARK  143  A    between atoms: _335  and  _337
REMARK  144  A    between atoms: _337  and  _338
REMARK  145  A    between atoms: _340  and  _342
REMARK  146  A    between atoms: _342  and  _343
REMARK  147  A    between atoms: _345  and  _347
REMARK  148  A    between atoms: _347  and  _348
REMARK  149  A    between atoms: _347  and  _350
REMARK  150  A    between atoms: _350  and  _351
REMARK  151  A    between atoms: _357  and  _359
REMARK  152  A    between atoms: _359  and  _360
REMARK  153  A    between atoms: _359  and  _362
REMARK  154  A    between atoms: _362  and  _363
REMARK  155  A    between atoms: _366  and  _368
REMARK  156  A    between atoms: _368  and  _369
REMARK  157  A    between atoms: _368  and  _371
REMARK  158  A    between atoms: _371  and  _372
REMARK  159  A    between atoms: _377  and  _379
REMARK  160  A    between atoms: _379  and  _380
REMARK  161  A    between atoms: _379  and  _382
REMARK  162  A    between atoms: _382  and  _383
REMARK  163  A    between atoms: _383  and  _384
REMARK  164  A    between atoms: _384  and  _385
REMARK  165  A    between atoms: _394  and  _396
REMARK  166  A    between atoms: _396  and  _397
REMARK  167  A    between atoms: _396  and  _399
REMARK  168  A    between atoms: _399  and  _400
REMARK  169  A    between atoms: _403  and  _405
REMARK  170  A    between atoms: _405  and  _406
REMARK  171  A    between atoms: _405  and  _408
REMARK  172  A    between atoms: _408  and  _409
REMARK  173  A    between atoms: _414  and  _415
REMARK  174  A    between atoms: _417  and  _419
REMARK  175  A    between atoms: _419  and  _420
REMARK  176  A    between atoms: _422  and  _424
REMARK  177  A    between atoms: _424  and  _425
REMARK  178  A    between atoms: _424  and  _427
REMARK  179  A    between atoms: _427  and  _428
REMARK  180  A    between atoms: _430  and  _432
REMARK  181  A    between atoms: _432  and  _433
REMARK  182  A    between atoms: _432  and  _435
REMARK  183  A    between atoms: _435  and  _436
REMARK  184  A    between atoms: _436  and  _437
REMARK  185  A    between atoms: _437  and  _438
REMARK  186  A    between atoms: _447  and  _449
REMARK  187  A    between atoms: _449  and  _450
REMARK  188  A    between atoms: _449  and  _452
REMARK  189  A    between atoms: _452  and  _453
REMARK  190  A    between atoms: _453  and  _454
REMARK  191  A    between atoms: _456  and  _458
REMARK  192  A    between atoms: _458  and  _459
REMARK  193  A    between atoms: _458  and  _461
REMARK  194  A    between atoms: _461  and  _462
REMARK  195  A    between atoms: _465  and  _467
REMARK  196  A    between atoms: _467  and  _468
REMARK  197  A    between atoms: _467  and  _470
REMARK  198  A    between atoms: _470  and  _471
REMARK  199  A    between atoms: _476  and  _478
REMARK  200  A    between atoms: _478  and  _479
REMARK  201  A    between atoms: _481  and  _483
REMARK  202  A    between atoms: _483  and  _484
REMARK  203  A    between atoms: _483  and  _486
REMARK  204  A    between atoms: _486  and  _487
REMARK  205  A    between atoms: _489  and  _491
REMARK  206  A    between atoms: _491  and  _492
REMARK  207  A    between atoms: _491  and  _494
REMARK  208  A    between atoms: _494  and  _495
REMARK  209  A    between atoms: _495  and  _496
REMARK  210  A    between atoms: _498  and  _500
REMARK  211  A    between atoms: _500  and  _501
REMARK  212  A    between atoms: _500  and  _503
REMARK  213  A    between atoms: _503  and  _504
REMARK  214  A    between atoms: _504  and  _505
REMARK  215  A    between atoms: _505  and  _506
REMARK  216  A    between atoms: _516  and  _517
REMARK  217  A    between atoms: _522  and  _524
REMARK  218  A    between atoms: _524  and  _525
REMARK  219  A    between atoms: _524  and  _527
REMARK  220  A    between atoms: _527  and  _528
REMARK  221  A    between atoms: _533  and  _534
REMARK  222  A    between atoms: _536  and  _538
REMARK  223  A    between atoms: _538  and  _539
REMARK  224  A    between atoms: _538  and  _541
REMARK  225  A    between atoms: _541  and  _542
REMARK  226  A    between atoms: _545  and  _547
REMARK  227  A    between atoms: _547  and  _548
REMARK  228  A    between atoms: _547  and  _550
REMARK  229  A    between atoms: _550  and  _551
REMARK  230  A    between atoms: _557  and  _559
REMARK  231  A    between atoms: _559  and  _560
REMARK  232  A    between atoms: _559  and  _562
REMARK  233  A    between atoms: _562  and  _563
REMARK  234  A    between atoms: _566  and  _568
REMARK  235  A    between atoms: _568  and  _569
REMARK  236  A    between atoms: _572  and  _574
REMARK  237  A    between atoms: _574  and  _575
REMARK  238  A    between atoms: _574  and  _577
REMARK  239  A    between atoms: _577  and  _578
REMARK                            x       y       z     vdW  Elec       q    Type
REMARK                         _______ _______ _______ _____ _____    ______ ____
ROOT
ATOM      1  O   HOH     1      22.924  19.576  17.430  0.00  0.00    +0.000 OA
ENDROOT
TORSDOF 0
REMARK  Name = ../refined-set-2016/2w8w/2w8w_pocket.pdb
REMARK  239 active torsions:
REMARK  status: ('A' for Active; 'I' for Inactive)
REMARK    1  A    between atoms: _1  and  _3
REMARK    2  A    between atoms: _3  and  _4
REMARK    3  A    between atoms: _6  and  _8
REMARK    4  A    between atoms: _8  and  _9
REMARK    5  A    between atoms: _8  and  _11
REMARK    6  A    between atoms: _11  and  _12
REMARK    7  A    between atoms: _17  and  _18
REMARK    8  A    between atoms: _20  and  _22
REMARK    9  A    between atoms: _22  and  _23
REMARK   10  A    between atoms: _22  and  _25
REMARK   11  A    between atoms: _25  and  _26
REMARK   12  A    between atoms: _31  and  _32
REMARK   13  A    between atoms: _34  and  _36
REMARK   14  A    between atoms: _36  and  _37
REMARK   15  A    between atoms: _36  and  _39
REMARK   16  A    between atoms: _39  and  _40
REMARK   17  A    between atoms: _42  and  _44
REMARK   18  A    between atoms: _44  and  _45
REMARK   19  A    between atoms: _44  and  _47
REMARK   20  A    between atoms: _47  and  _48
REMARK   21  A    between atoms: _51  and  _53
REMARK   22  A    between atoms: _53  and  _54
REMARK   23  A    between atoms: _56  and  _58
REMARK   24  A    between atoms: _58  and  _59
REMARK   25  A    between atoms: _58  and  _61
REMARK   26  A    between atoms: _61  and  _62
REMARK   27  A    between atoms: _67  and  _68
REMARK   28  A    between atoms: _70  and  _72
REMARK   29  A    between atoms: _72  and  _73
REMARK   30  A    between atoms: _72  and  _75
REMARK   31  A    between atoms: _75  and  _76
REMARK   32  A    between atoms: _76  and  _77
REMARK   33  A    between atoms: _79  and  _81
REMARK   34  A    between atoms: _81  and  _82
REMARK   35  A    between atoms: _85  and  _87
REMARK   36  A    between atoms: _87  and  _88
REMARK   37  A    between atoms: _87  and  _90
REMARK   38  A    between atoms: _90  and  _91
REMARK   39  A    between atoms: _96  and  _98
REMARK   40  A    between atoms: _98  and  _99
REMARK   41  A    between atoms: _98  and  _101
REMARK   42  A    between atoms: _101  and  _102
REMARK   43  A    between atoms: _105  and  _107
REMARK   44  A    between atoms: _107  and  _108
REMARK   45  A    between atoms: _107  and  _110
REMARK   46  A    between atoms: _110  and  _111
REMARK   47  A    between atoms: _114  and  _116
REMARK   48  A    between atoms: _116  and  _117
REMARK   49  A    between atoms: _116  and  _119
REMARK   50  A    between atoms: _119  and  _120
REMARK   51  A    between atoms: _122  and  _124
REMARK   52  A    between atoms: _124  and  _125
REMARK   53  A    between atoms: _124  and  _127
REMARK   54  A    between atoms: _127  and  _128
REMARK   55  A    between atoms: _133  and  _135
REMARK   56  A    between atoms: _135  and  _136
REMARK   57  A    between atoms: _139  and  _141
REMARK   58  A    between atoms: _141  and  _142
REMARK   59  A    between atoms: _141  and  _144
REMARK   60  A    between atoms: _144  and  _145
REMARK   61  A    between atoms: _147  and  _149
REMARK   62  A    between atoms: _149  and  _150
REMARK   63  A    between atoms: _149  and  _152
REMARK   64  A    between atoms: _152  and  _153
REMARK   65  A    between atoms: _156  and  _158
REMARK   66  A    between atoms: _158  and  _159
REMARK   67  A    between atoms: _158  and  _161
REMARK   68  A    between atoms: _161  and  _162
REMARK   69  A    between atoms: _165  and  _167
REMARK   70  A    between atoms: _167  and  _168
REMARK   71  A    between atoms: _167  and  _170
REMARK   72  A    between atoms: _170  and  _171
REMARK   73  A    between atoms: _171  and  _172
REMARK   74  A    between atoms: _175  and  _177
REMARK   75  A    between atoms: _177  and  _178
REMARK   76  A    between atoms: _180  and  _182
REMARK   77  A    between atoms: _182  and  _183
REMARK   78  A    between atoms: _182  and  _185
REMARK   79  A    between atoms: _188  and  _190
REMARK   80  A    between atoms: _190  and  _191
REMARK   81  A    between atoms: _190  and  _193
REMARK   82  A    between atoms: _193  and  _194
REMARK   83  A    between atoms: _199  and  _200
REMARK   84  A    between atoms: _202  and  _204
REMARK   85  A    between atoms: _204  and  _205
REMARK   86  A    between atoms: _204  and  _207
REMARK   87  A    between atoms: _207  and  _208
REMARK   88  A    between atoms: _210  and  _212
REMARK   89  A    between atoms: _212  and  _213
REMARK   90  A    between atoms: _212  and  _215
REMARK   91  A    between atoms: _215  and  _216
REMARK   92  A    between atoms: _216  and  _217
REMARK   93  A    between atoms: _219  and  _221
REMARK   94  A    between atoms: _221  and  _222
REMARK   95  A    between atoms: _221  and  _224
REMARK   96  A    between atoms: _224  and  _225
REMARK   97  A    between atoms: _228  and  _230
REMARK   98  A    between atoms: _230  and  _231
REMARK   99  A    between atoms: _230  and  _233
REMARK  100  A    between atoms: _233  and  _234
REMARK  101  A    between atoms: _234  and  _235
REMARK  102  A    between atoms: _238  and  _240
REMARK  103  A    between atoms: _240  and  _241
REMARK  104  A    between atoms: _244  and  _246
REMARK  105  A    between atoms: _246  and  _247
REMARK  106  A    between atoms: _246  and  _249
REMARK  107  A    between atoms: _249  and  _250
REMARK  108  A    between atoms: _255  and  _257
REMARK  109  A    between atoms: _257  and  _258
REMARK  110  A    between atoms: _257  and  _260
REMARK  111  A    between atoms: _260  and  _261
REMARK  112  A    between atoms: _263  and  _265
REMARK  113  A    between atoms: _265  and  _266
REMARK  114  A    between atoms: _265  and  _268
REMARK  115  A    between atoms: _271  and  _273
REMARK  116  A    between atoms: _273  and  _274
REMARK  117  A    between atoms: _276  and  _278
REMARK  118  A    between atoms: _278  and  _279
REMARK  119  A    between atoms: _278  and  _281
REMARK  120  A    between atoms: _281  and  _282
REMARK  121  A    between atoms: _285  and  _287
REMARK  122  A    between atoms: _287  and  _288
REMARK  123  A    between atoms: _287  and  _290
REMARK  124  A    between atoms: _290  and  _291
REMARK  125  A    between atoms: _297  and  _299
REMARK  126  A    between atoms: _299  and  _300
REMARK  127  A    between atoms: _299  and  _302
REMARK  128  A    between atoms: _302  and  _303
REMARK  129  A    between atoms: _305  and  _307
REMARK  130  A    between atoms: _307  and  _308
REMARK  131  A    between atoms: _307  and  _310
REMARK  132  A    between atoms: _310  and  _311
REMARK  133  A    between atoms: _311  and  _312
REMARK  134  A    between atoms: _312  and  _313
REMARK  135  A    between atoms: _313  and  _314
REMARK  136  A    between atoms: _318  and  _320
REMARK  137  A    between atoms: _320  and  _321
REMARK  138  A    between atoms: _320  and  _323
REMARK  139  A    between atoms: _323  and  _324
REMARK  140  A    between atoms: _327  and  _329
REMARK  141  A    between atoms: _329  and  _330
REMARK  142  A    between atoms: _329  and  _332
REMARK  143  A    between atoms: _335  and  _337
REMARK  144  A    between atoms: _337  and  _338
REMARK  145  A    between atoms: _340  and  _342
REMARK  146  A    between atoms: _342  and  _343
REMARK  147  A    between atoms: _345  and  _347
REMARK  148  A    between atoms: _347  and  _348
REMARK  149  A    between atoms: _347  and  _350
REMARK  150  A    between atoms: _350  and  _351
REMARK  151  A    between atoms: _357  and  _359
REMARK  152  A    between atoms: _359  and  _360
REMARK  153  A    between atoms: _359  and  _362
REMARK  154  A    between atoms: _362  and  _363
REMARK  155  A    between atoms: _366  and  _368
REMARK  156  A    between atoms: _368  and  _369
REMARK  157  A    between atoms: _368  and  _371
REMARK  158  A    between atoms: _371  and  _372
REMARK  159  A    between atoms: _377  and  _379
REMARK  160  A    between atoms: _379  and  _380
REMARK  161  A    between atoms: _379  and  _382
REMARK  162  A    between atoms: _382  and  _383
REMARK  163  A    between atoms: _383  and  _384
REMARK  164  A    between atoms: _384  and  _385
REMARK  165  A    between atoms: _394  and  _396
REMARK  166  A    between atoms: _396  and  _397
REMARK  167  A    between atoms: _396  and  _399
REMARK  168  A    between atoms: _399  and  _400
REMARK  169  A    between atoms: _403  and  _405
REMARK  170  A    between atoms: _405  and  _406
REMARK  171  A    between atoms: _405  and  _408
REMARK  172  A    between atoms: _408  and  _409
REMARK  173  A    between atoms: _414  and  _415
REMARK  174  A    between atoms: _417  and  _419
REMARK  175  A    between atoms: _419  and  _420
REMARK  176  A    between atoms: _422  and  _424
REMARK  177  A    between atoms: _424  and  _425
REMARK  178  A    between atoms: _424  and  _427
REMARK  179  A    between atoms: _427  and  _428
REMARK  180  A    between atoms: _430  and  _432
REMARK  181  A    between atoms: _432  and  _433
REMARK  182  A    between atoms: _432  and  _435
REMARK  183  A    between atoms: _435  and  _436
REMARK  184  A    between atoms: _436  and  _437
REMARK  185  A    between atoms: _437  and  _438
REMARK  186  A    between atoms: _447  and  _449
REMARK  187  A    between atoms: _449  and  _450
REMARK  188  A    between atoms: _449  and  _452
REMARK  189  A    between atoms: _452  and  _453
REMARK  190  A    between atoms: _453  and  _454
REMARK  191  A    between atoms: _456  and  _458
REMARK  192  A    between atoms: _458  and  _459
REMARK  193  A    between atoms: _458  and  _461
REMARK  194  A    between atoms: _461  and  _462
REMARK  195  A    between atoms: _465  and  _467
REMARK  196  A    between atoms: _467  and  _468
REMARK  197  A    between atoms: _467  and  _470
REMARK  198  A    between atoms: _470  and  _471
REMARK  199  A    between atoms: _476  and  _478
REMARK  200  A    between atoms: _478  and  _479
REMARK  201  A    between atoms: _481  and  _483
REMARK  202  A    between atoms: _483  and  _484
REMARK  203  A    between atoms: _483  and  _486
REMARK  204  A    between atoms: _486  and  _487
REMARK  205  A    between atoms: _489  and  _491
REMARK  206  A    between atoms: _491  and  _492
REMARK  207  A    between atoms: _491  and  _494
REMARK  208  A    between atoms: _494  and  _495
REMARK  209  A    between atoms: _495  and  _496
REMARK  210  A    between atoms: _498  and  _500
REMARK  211  A    between atoms: _500  and  _501
REMARK  212  A    between atoms: _500  and  _503
REMARK  213  A    between atoms: _503  and  _504
REMARK  214  A    between atoms: _504  and  _505
REMARK  215  A    between atoms: _505  and  _506
REMARK  216  A    between atoms: _516  and  _517
REMARK  217  A    between atoms: _522  and  _524
REMARK  218  A    between atoms: _524  and  _525
REMARK  219  A    between atoms: _524  and  _527
REMARK  220  A    between atoms: _527  and  _528
REMARK  221  A    between atoms: _533  and  _534
REMARK  222  A    between atoms: _536  and  _538
REMARK  223  A    between atoms: _538  and  _539
REMARK  224  A    between atoms: _538  and  _541
REMARK  225  A    between atoms: _541  and  _542
REMARK  226  A    between atoms: _545  and  _547
REMARK  227  A    between atoms: _547  and  _548
REMARK  228  A    between atoms: _547  and  _550
REMARK  229  A    between atoms: _550  and  _551
REMARK  230  A    between atoms: _557  and  _559
REMARK  231  A    between atoms: _559  and  _560
REMARK  232  A    between atoms: _559  and  _562
REMARK  233  A    between atoms: _562  and  _563
REMARK  234  A    between atoms: _566  and  _568
REMARK  235  A    between atoms: _568  and  _569
REMARK  236  A    between atoms: _572  and  _574
REMARK  237  A    between atoms: _574  and  _575
REMARK  238  A    between atoms: _574  and  _577
REMARK  239  A    between atoms: _577  and  _578
REMARK                            x       y       z     vdW  Elec       q    Type
REMARK                         _______ _______ _______ _____ _____    ______ ____
ROOT
ATOM      1  O   HOH     1      32.574  24.815  15.064  0.00  0.00    +0.000 OA
ENDROOT
TORSDOF 0
REMARK  Name = ../refined-set-2016/2w8w/2w8w_pocket.pdb
REMARK  239 active torsions:
REMARK  status: ('A' for Active; 'I' for Inactive)
REMARK    1  A    between atoms: _1  and  _3
REMARK    2  A    between atoms: _3  and  _4
REMARK    3  A    between atoms: _6  and  _8
REMARK    4  A    between atoms: _8  and  _9
REMARK    5  A    between atoms: _8  and  _11
REMARK    6  A    between atoms: _11  and  _12
REMARK    7  A    between atoms: _17  and  _18
REMARK    8  A    between atoms: _20  and  _22
REMARK    9  A    between atoms: _22  and  _23
REMARK   10  A    between atoms: _22  and  _25
REMARK   11  A    between atoms: _25  and  _26
REMARK   12  A    between atoms: _31  and  _32
REMARK   13  A    between atoms: _34  and  _36
REMARK   14  A    between atoms: _36  and  _37
REMARK   15  A    between atoms: _36  and  _39
REMARK   16  A    between atoms: _39  and  _40
REMARK   17  A    between atoms: _42  and  _44
REMARK   18  A    between atoms: _44  and  _45
REMARK   19  A    between atoms: _44  and  _47
REMARK   20  A    between atoms: _47  and  _48
REMARK   21  A    between atoms: _51  and  _53
REMARK   22  A    between atoms: _53  and  _54
REMARK   23  A    between atoms: _56  and  _58
REMARK   24  A    between atoms: _58  and  _59
REMARK   25  A    between atoms: _58  and  _61
REMARK   26  A    between atoms: _61  and  _62
REMARK   27  A    between atoms: _67  and  _68
REMARK   28  A    between atoms: _70  and  _72
REMARK   29  A    between atoms: _72  and  _73
REMARK   30  A    between atoms: _72  and  _75
REMARK   31  A    between atoms: _75  and  _76
REMARK   32  A    between atoms: _76  and  _77
REMARK   33  A    between atoms: _79  and  _81
REMARK   34  A    between atoms: _81  and  _82
REMARK   35  A    between atoms: _85  and  _87
REMARK   36  A    between atoms: _87  and  _88
REMARK   37  A    between atoms: _87  and  _90
REMARK   38  A    between atoms: _90  and  _91
REMARK   39  A    between atoms: _96  and  _98
REMARK   40  A    between atoms: _98  and  _99
REMARK   41  A    between atoms: _98  and  _101
REMARK   42  A    between atoms: _101  and  _102
REMARK   43  A    between atoms: _105  and  _107
REMARK   44  A    between atoms: _107  and  _108
REMARK   45  A    between atoms: _107  and  _110
REMARK   46  A    between atoms: _110  and  _111
REMARK   47  A    between atoms: _114  and  _116
REMARK   48  A    between atoms: _116  and  _117
REMARK   49  A    between atoms: _116  and  _119
REMARK   50  A    between atoms: _119  and  _120
REMARK   51  A    between atoms: _122  and  _124
REMARK   52  A    between atoms: _124  and  _125
REMARK   53  A    between atoms: _124  and  _127
REMARK   54  A    between atoms: _127  and  _128
REMARK   55  A    between atoms: _133  and  _135
REMARK   56  A    between atoms: _135  and  _136
REMARK   57  A    between atoms: _139  and  _141
REMARK   58  A    between atoms: _141  and  _142
REMARK   59  A    between atoms: _141  and  _144
REMARK   60  A    between atoms: _144  and  _145
REMARK   61  A    between atoms: _147  and  _149
REMARK   62  A    between atoms: _149  and  _150
REMARK   63  A    between atoms: _149  and  _152
REMARK   64  A    between atoms: _152  and  _153
REMARK   65  A    between atoms: _156  and  _158
REMARK   66  A    between atoms: _158  and  _159
REMARK   67  A    between atoms: _158  and  _161
REMARK   68  A    between atoms: _161  and  _162
REMARK   69  A    between atoms: _165  and  _167
REMARK   70  A    between atoms: _167  and  _168
REMARK   71  A    between atoms: _167  and  _170
REMARK   72  A    between atoms: _170  and  _171
REMARK   73  A    between atoms: _171  and  _172
REMARK   74  A    between atoms: _175  and  _177
REMARK   75  A    between atoms: _177  and  _178
REMARK   76  A    between atoms: _180  and  _182
REMARK   77  A    between atoms: _182  and  _183
REMARK   78  A    between atoms: _182  and  _185
REMARK   79  A    between atoms: _188  and  _190
REMARK   80  A    between atoms: _190  and  _191
REMARK   81  A    between atoms: _190  and  _193
REMARK   82  A    between atoms: _193  and  _194
REMARK   83  A    between atoms: _199  and  _200
REMARK   84  A    between atoms: _202  and  _204
REMARK   85  A    between atoms: _204  and  _205
REMARK   86  A    between atoms: _204  and  _207
REMARK   87  A    between atoms: _207  and  _208
REMARK   88  A    between atoms: _210  and  _212
REMARK   89  A    between atoms: _212  and  _213
REMARK   90  A    between atoms: _212  and  _215
REMARK   91  A    between atoms: _215  and  _216
REMARK   92  A    between atoms: _216  and  _217
REMARK   93  A    between atoms: _219  and  _221
REMARK   94  A    between atoms: _221  and  _222
REMARK   95  A    between atoms: _221  and  _224
REMARK   96  A    between atoms: _224  and  _225
REMARK   97  A    between atoms: _228  and  _230
REMARK   98  A    between atoms: _230  and  _231
REMARK   99  A    between atoms: _230  and  _233
REMARK  100  A    between atoms: _233  and  _234
REMARK  101  A    between atoms: _234  and  _235
REMARK  102  A    between atoms: _238  and  _240
REMARK  103  A    between atoms: _240  and  _241
REMARK  104  A    between atoms: _244  and  _246
REMARK  105  A    between atoms: _246  and  _247
REMARK  106  A    between atoms: _246  and  _249
REMARK  107  A    between atoms: _249  and  _250
REMARK  108  A    between atoms: _255  and  _257
REMARK  109  A    between atoms: _257  and  _258
REMARK  110  A    between atoms: _257  and  _260
REMARK  111  A    between atoms: _260  and  _261
REMARK  112  A    between atoms: _263  and  _265
REMARK  113  A    between atoms: _265  and  _266
REMARK  114  A    between atoms: _265  and  _268
REMARK  115  A    between atoms: _271  and  _273
REMARK  116  A    between atoms: _273  and  _274
REMARK  117  A    between atoms: _276  and  _278
REMARK  118  A    between atoms: _278  and  _279
REMARK  119  A    between atoms: _278  and  _281
REMARK  120  A    between atoms: _281  and  _282
REMARK  121  A    between atoms: _285  and  _287
REMARK  122  A    between atoms: _287  and  _288
REMARK  123  A    between atoms: _287  and  _290
REMARK  124  A    between atoms: _290  and  _291
REMARK  125  A    between atoms: _297  and  _299
REMARK  126  A    between atoms: _299  and  _300
REMARK  127  A    between atoms: _299  and  _302
REMARK  128  A    between atoms: _302  and  _303
REMARK  129  A    between atoms: _305  and  _307
REMARK  130  A    between atoms: _307  and  _308
REMARK  131  A    between atoms: _307  and  _310
REMARK  132  A    between atoms: _310  and  _311
REMARK  133  A    between atoms: _311  and  _312
REMARK  134  A    between atoms: _312  and  _313
REMARK  135  A    between atoms: _313  and  _314
REMARK  136  A    between atoms: _318  and  _320
REMARK  137  A    between atoms: _320  and  _321
REMARK  138  A    between atoms: _320  and  _323
REMARK  139  A    between atoms: _323  and  _324
REMARK  140  A    between atoms: _327  and  _329
REMARK  141  A    between atoms: _329  and  _330
REMARK  142  A    between atoms: _329  and  _332
REMARK  143  A    between atoms: _335  and  _337
REMARK  144  A    between atoms: _337  and  _338
REMARK  145  A    between atoms: _340  and  _342
REMARK  146  A    between atoms: _342  and  _343
REMARK  147  A    between atoms: _345  and  _347
REMARK  148  A    between atoms: _347  and  _348
REMARK  149  A    between atoms: _347  and  _350
REMARK  150  A    between atoms: _350  and  _351
REMARK  151  A    between atoms: _357  and  _359
REMARK  152  A    between atoms: _359  and  _360
REMARK  153  A    between atoms: _359  and  _362
REMARK  154  A    between atoms: _362  and  _363
REMARK  155  A    between atoms: _366  and  _368
REMARK  156  A    between atoms: _368  and  _369
REMARK  157  A    between atoms: _368  and  _371
REMARK  158  A    between atoms: _371  and  _372
REMARK  159  A    between atoms: _377  and  _379
REMARK  160  A    between atoms: _379  and  _380
REMARK  161  A    between atoms: _379  and  _382
REMARK  162  A    between atoms: _382  and  _383
REMARK  163  A    between atoms: _383  and  _384
REMARK  164  A    between atoms: _384  and  _385
REMARK  165  A    between atoms: _394  and  _396
REMARK  166  A    between atoms: _396  and  _397
REMARK  167  A    between atoms: _396  and  _399
REMARK  168  A    between atoms: _399  and  _400
REMARK  169  A    between atoms: _403  and  _405
REMARK  170  A    between atoms: _405  and  _406
REMARK  171  A    between atoms: _405  and  _408
REMARK  172  A    between atoms: _408  and  _409
REMARK  173  A    between atoms: _414  and  _415
REMARK  174  A    between atoms: _417  and  _419
REMARK  175  A    between atoms: _419  and  _420
REMARK  176  A    between atoms: _422  and  _424
REMARK  177  A    between atoms: _424  and  _425
REMARK  178  A    between atoms: _424  and  _427
REMARK  179  A    between atoms: _427  and  _428
REMARK  180  A    between atoms: _430  and  _432
REMARK  181  A    between atoms: _432  and  _433
REMARK  182  A    between atoms: _432  and  _435
REMARK  183  A    between atoms: _435  and  _436
REMARK  184  A    between atoms: _436  and  _437
REMARK  185  A    between atoms: _437  and  _438
REMARK  186  A    between atoms: _447  and  _449
REMARK  187  A    between atoms: _449  and  _450
REMARK  188  A    between atoms: _449  and  _452
REMARK  189  A    between atoms: _452  and  _453
REMARK  190  A    between atoms: _453  and  _454
REMARK  191  A    between atoms: _456  and  _458
REMARK  192  A    between atoms: _458  and  _459
REMARK  193  A    between atoms: _458  and  _461
REMARK  194  A    between atoms: _461  and  _462
REMARK  195  A    between atoms: _465  and  _467
REMARK  196  A    between atoms: _467  and  _468
REMARK  197  A    between atoms: _467  and  _470
REMARK  198  A    between atoms: _470  and  _471
REMARK  199  A    between atoms: _476  and  _478
REMARK  200  A    between atoms: _478  and  _479
REMARK  201  A    between atoms: _481  and  _483
REMARK  202  A    between atoms: _483  and  _484
REMARK  203  A    between atoms: _483  and  _486
REMARK  204  A    between atoms: _486  and  _487
REMARK  205  A    between atoms: _489  and  _491
REMARK  206  A    between atoms: _491  and  _492
REMARK  207  A    between atoms: _491  and  _494
REMARK  208  A    between atoms: _494  and  _495
REMARK  209  A    between atoms: _495  and  _496
REMARK  210  A    between atoms: _498  and  _500
REMARK  211  A    between atoms: _500  and  _501
REMARK  212  A    between atoms: _500  and  _503
REMARK  213  A    between atoms: _503  and  _504
REMARK  214  A    between atoms: _504  and  _505
REMARK  215  A    between atoms: _505  and  _506
REMARK  216  A    between atoms: _516  and  _517
REMARK  217  A    between atoms: _522  and  _524
REMARK  218  A    between atoms: _524  and  _525
REMARK  219  A    between atoms: _524  and  _527
REMARK  220  A    between atoms: _527  and  _528
REMARK  221  A    between atoms: _533  and  _534
REMARK  222  A    between atoms: _536  and  _538
REMARK  223  A    between atoms: _538  and  _539
REMARK  224  A    between atoms: _538  and  _541
REMARK  225  A    between atoms: _541  and  _542
REMARK  226  A    between atoms: _545  and  _547
REMARK  227  A    between atoms: _547  and  _548
REMARK  228  A    between atoms: _547  and  _550
REMARK  229  A    between atoms: _550  and  _551
REMARK  230  A    between atoms: _557  and  _559
REMARK  231  A    between atoms: _559  and  _560
REMARK  232  A    between atoms: _559  and  _562
REMARK  233  A    between atoms: _562  and  _563
REMARK  234  A    between atoms: _566  and  _568
REMARK  235  A    between atoms: _568  and  _569
REMARK  236  A    between atoms: _572  and  _574
REMARK  237  A    between atoms: _574  and  _575
REMARK  238  A    between atoms: _574  and  _577
REMARK  239  A    between atoms: _577  and  _578
REMARK                            x       y       z     vdW  Elec       q    Type
REMARK                         _______ _______ _______ _____ _____    ______ ____
ROOT
ATOM      1  O   HOH     1      32.498  19.711  18.764  0.00  0.00    +0.000 OA
ENDROOT
TORSDOF 0
REMARK  Name = ../refined-set-2016/2w8w/2w8w_pocket.pdb
REMARK  239 active torsions:
REMARK  status: ('A' for Active; 'I' for Inactive)
REMARK    1  A    between atoms: _1  and  _3
REMARK    2  A    between atoms: _3  and  _4
REMARK    3  A    between atoms: _6  and  _8
REMARK    4  A    between atoms: _8  and  _9
REMARK    5  A    between atoms: _8  and  _11
REMARK    6  A    between atoms: _11  and  _12
REMARK    7  A    between atoms: _17  and  _18
REMARK    8  A    between atoms: _20  and  _22
REMARK    9  A    between atoms: _22  and  _23
REMARK   10  A    between atoms: _22  and  _25
REMARK   11  A    between atoms: _25  and  _26
REMARK   12  A    between atoms: _31  and  _32
REMARK   13  A    between atoms: _34  and  _36
REMARK   14  A    between atoms: _36  and  _37
REMARK   15  A    between atoms: _36  and  _39
REMARK   16  A    between atoms: _39  and  _40
REMARK   17  A    between atoms: _42  and  _44
REMARK   18  A    between atoms: _44  and  _45
REMARK   19  A    between atoms: _44  and  _47
REMARK   20  A    between atoms: _47  and  _48
REMARK   21  A    between atoms: _51  and  _53
REMARK   22  A    between atoms: _53  and  _54
REMARK   23  A    between atoms: _56  and  _58
REMARK   24  A    between atoms: _58  and  _59
REMARK   25  A    between atoms: _58  and  _61
REMARK   26  A    between atoms: _61  and  _62
REMARK   27  A    between atoms: _67  and  _68
REMARK   28  A    between atoms: _70  and  _72
REMARK   29  A    between atoms: _72  and  _73
REMARK   30  A    between atoms: _72  and  _75
REMARK   31  A    between atoms: _75  and  _76
REMARK   32  A    between atoms: _76  and  _77
REMARK   33  A    between atoms: _79  and  _81
REMARK   34  A    between atoms: _81  and  _82
REMARK   35  A    between atoms: _85  and  _87
REMARK   36  A    between atoms: _87  and  _88
REMARK   37  A    between atoms: _87  and  _90
REMARK   38  A    between atoms: _90  and  _91
REMARK   39  A    between atoms: _96  and  _98
REMARK   40  A    between atoms: _98  and  _99
REMARK   41  A    between atoms: _98  and  _101
REMARK   42  A    between atoms: _101  and  _102
REMARK   43  A    between atoms: _105  and  _107
REMARK   44  A    between atoms: _107  and  _108
REMARK   45  A    between atoms: _107  and  _110
REMARK   46  A    between atoms: _110  and  _111
REMARK   47  A    between atoms: _114  and  _116
REMARK   48  A    between atoms: _116  and  _117
REMARK   49  A    between atoms: _116  and  _119
REMARK   50  A    between atoms: _119  and  _120
REMARK   51  A    between atoms: _122  and  _124
REMARK   52  A    between atoms: _124  and  _125
REMARK   53  A    between atoms: _124  and  _127
REMARK   54  A    between atoms: _127  and  _128
REMARK   55  A    between atoms: _133  and  _135
REMARK   56  A    between atoms: _135  and  _136
REMARK   57  A    between atoms: _139  and  _141
REMARK   58  A    between atoms: _141  and  _142
REMARK   59  A    between atoms: _141  and  _144
REMARK   60  A    between atoms: _144  and  _145
REMARK   61  A    between atoms: _147  and  _149
REMARK   62  A    between atoms: _149  and  _150
REMARK   63  A    between atoms: _149  and  _152
REMARK   64  A    between atoms: _152  and  _153
REMARK   65  A    between atoms: _156  and  _158
REMARK   66  A    between atoms: _158  and  _159
REMARK   67  A    between atoms: _158  and  _161
REMARK   68  A    between atoms: _161  and  _162
REMARK   69  A    between atoms: _165  and  _167
REMARK   70  A    between atoms: _167  and  _168
REMARK   71  A    between atoms: _167  and  _170
REMARK   72  A    between atoms: _170  and  _171
REMARK   73  A    between atoms: _171  and  _172
REMARK   74  A    between atoms: _175  and  _177
REMARK   75  A    between atoms: _177  and  _178
REMARK   76  A    between atoms: _180  and  _182
REMARK   77  A    between atoms: _182  and  _183
REMARK   78  A    between atoms: _182  and  _185
REMARK   79  A    between atoms: _188  and  _190
REMARK   80  A    between atoms: _190  and  _191
REMARK   81  A    between atoms: _190  and  _193
REMARK   82  A    between atoms: _193  and  _194
REMARK   83  A    between atoms: _199  and  _200
REMARK   84  A    between atoms: _202  and  _204
REMARK   85  A    between atoms: _204  and  _205
REMARK   86  A    between atoms: _204  and  _207
REMARK   87  A    between atoms: _207  and  _208
REMARK   88  A    between atoms: _210  and  _212
REMARK   89  A    between atoms: _212  and  _213
REMARK   90  A    between atoms: _212  and  _215
REMARK   91  A    between atoms: _215  and  _216
REMARK   92  A    between atoms: _216  and  _217
REMARK   93  A    between atoms: _219  and  _221
REMARK   94  A    between atoms: _221  and  _222
REMARK   95  A    between atoms: _221  and  _224
REMARK   96  A    between atoms: _224  and  _225
REMARK   97  A    between atoms: _228  and  _230
REMARK   98  A    between atoms: _230  and  _231
REMARK   99  A    between atoms: _230  and  _233
REMARK  100  A    between atoms: _233  and  _234
REMARK  101  A    between atoms: _234  and  _235
REMARK  102  A    between atoms: _238  and  _240
REMARK  103  A    between atoms: _240  and  _241
REMARK  104  A    between atoms: _244  and  _246
REMARK  105  A    between atoms: _246  and  _247
REMARK  106  A    between atoms: _246  and  _249
REMARK  107  A    between atoms: _249  and  _250
REMARK  108  A    between atoms: _255  and  _257
REMARK  109  A    between atoms: _257  and  _258
REMARK  110  A    between atoms: _257  and  _260
REMARK  111  A    between atoms: _260  and  _261
REMARK  112  A    between atoms: _263  and  _265
REMARK  113  A    between atoms: _265  and  _266
REMARK  114  A    between atoms: _265  and  _268
REMARK  115  A    between atoms: _271  and  _273
REMARK  116  A    between atoms: _273  and  _274
REMARK  117  A    between atoms: _276  and  _278
REMARK  118  A    between atoms: _278  and  _279
REMARK  119  A    between atoms: _278  and  _281
REMARK  120  A    between atoms: _281  and  _282
REMARK  121  A    between atoms: _285  and  _287
REMARK  122  A    between atoms: _287  and  _288
REMARK  123  A    between atoms: _287  and  _290
REMARK  124  A    between atoms: _290  and  _291
REMARK  125  A    between atoms: _297  and  _299
REMARK  126  A    between atoms: _299  and  _300
REMARK  127  A    between atoms: _299  and  _302
REMARK  128  A    between atoms: _302  and  _303
REMARK  129  A    between atoms: _305  and  _307
REMARK  130  A    between atoms: _307  and  _308
REMARK  131  A    between atoms: _307  and  _310
REMARK  132  A    between atoms: _310  and  _311
REMARK  133  A    between atoms: _311  and  _312
REMARK  134  A    between atoms: _312  and  _313
REMARK  135  A    between atoms: _313  and  _314
REMARK  136  A    between atoms: _318  and  _320
REMARK  137  A    between atoms: _320  and  _321
REMARK  138  A    between atoms: _320  and  _323
REMARK  139  A    between atoms: _323  and  _324
REMARK  140  A    between atoms: _327  and  _329
REMARK  141  A    between atoms: _329  and  _330
REMARK  142  A    between atoms: _329  and  _332
REMARK  143  A    between atoms: _335  and  _337
REMARK  144  A    between atoms: _337  and  _338
REMARK  145  A    between atoms: _340  and  _342
REMARK  146  A    between atoms: _342  and  _343
REMARK  147  A    between atoms: _345  and  _347
REMARK  148  A    between atoms: _347  and  _348
REMARK  149  A    between atoms: _347  and  _350
REMARK  150  A    between atoms: _350  and  _351
REMARK  151  A    between atoms: _357  and  _359
REMARK  152  A    between atoms: _359  and  _360
REMARK  153  A    between atoms: _359  and  _362
REMARK  154  A    between atoms: _362  and  _363
REMARK  155  A    between atoms: _366  and  _368
REMARK  156  A    between atoms: _368  and  _369
REMARK  157  A    between atoms: _368  and  _371
REMARK  158  A    between atoms: _371  and  _372
REMARK  159  A    between atoms: _377  and  _379
REMARK  160  A    between atoms: _379  and  _380
REMARK  161  A    between atoms: _379  and  _382
REMARK  162  A    between atoms: _382  and  _383
REMARK  163  A    between atoms: _383  and  _384
REMARK  164  A    between atoms: _384  and  _385
REMARK  165  A    between atoms: _394  and  _396
REMARK  166  A    between atoms: _396  and  _397
REMARK  167  A    between atoms: _396  and  _399
REMARK  168  A    between atoms: _399  and  _400
REMARK  169  A    between atoms: _403  and  _405
REMARK  170  A    between atoms: _405  and  _406
REMARK  171  A    between atoms: _405  and  _408
REMARK  172  A    between atoms: _408  and  _409
REMARK  173  A    between atoms: _414  and  _415
REMARK  174  A    between atoms: _417  and  _419
REMARK  175  A    between atoms: _419  and  _420
REMARK  176  A    between atoms: _422  and  _424
REMARK  177  A    between atoms: _424  and  _425
REMARK  178  A    between atoms: _424  and  _427
REMARK  179  A    between atoms: _427  and  _428
REMARK  180  A    between atoms: _430  and  _432
REMARK  181  A    between atoms: _432  and  _433
REMARK  182  A    between atoms: _432  and  _435
REMARK  183  A    between atoms: _435  and  _436
REMARK  184  A    between atoms: _436  and  _437
REMARK  185  A    between atoms: _437  and  _438
REMARK  186  A    between atoms: _447  and  _449
REMARK  187  A    between atoms: _449  and  _450
REMARK  188  A    between atoms: _449  and  _452
REMARK  189  A    between atoms: _452  and  _453
REMARK  190  A    between atoms: _453  and  _454
REMARK  191  A    between atoms: _456  and  _458
REMARK  192  A    between atoms: _458  and  _459
REMARK  193  A    between atoms: _458  and  _461
REMARK  194  A    between atoms: _461  and  _462
REMARK  195  A    between atoms: _465  and  _467
REMARK  196  A    between atoms: _467  and  _468
REMARK  197  A    between atoms: _467  and  _470
REMARK  198  A    between atoms: _470  and  _471
REMARK  199  A    between atoms: _476  and  _478
REMARK  200  A    between atoms: _478  and  _479
REMARK  201  A    between atoms: _481  and  _483
REMARK  202  A    between atoms: _483  and  _484
REMARK  203  A    between atoms: _483  and  _486
REMARK  204  A    between atoms: _486  and  _487
REMARK  205  A    between atoms: _489  and  _491
REMARK  206  A    between atoms: _491  and  _492
REMARK  207  A    between atoms: _491  and  _494
REMARK  208  A    between atoms: _494  and  _495
REMARK  209  A    between atoms: _495  and  _496
REMARK  210  A    between atoms: _498  and  _500
REMARK  211  A    between atoms: _500  and  _501
REMARK  212  A    between atoms: _500  and  _503
REMARK  213  A    between atoms: _503  and  _504
REMARK  214  A    between atoms: _504  and  _505
REMARK  215  A    between atoms: _505  and  _506
REMARK  216  A    between atoms: _516  and  _517
REMARK  217  A    between atoms: _522  and  _524
REMARK  218  A    between atoms: _524  and  _525
REMARK  219  A    between atoms: _524  and  _527
REMARK  220  A    between atoms: _527  and  _528
REMARK  221  A    between atoms: _533  and  _534
REMARK  222  A    between atoms: _536  and  _538
REMARK  223  A    between atoms: _538  and  _539
REMARK  224  A    between atoms: _538  and  _541
REMARK  225  A    between atoms: _541  and  _542
REMARK  226  A    between atoms: _545  and  _547
REMARK  227  A    between atoms: _547  and  _548
REMARK  228  A    between atoms: _547  and  _550
REMARK  229  A    between atoms: _550  and  _551
REMARK  230  A    between atoms: _557  and  _559
REMARK  231  A    between atoms: _559  and  _560
REMARK  232  A    between atoms: _559  and  _562
REMARK  233  A    between atoms: _562  and  _563
REMARK  234  A    between atoms: _566  and  _568
REMARK  235  A    between atoms: _568  and  _569
REMARK  236  A    between atoms: _572  and  _574
REMARK  237  A    between atoms: _574  and  _575
REMARK  238  A    between atoms: _574  and  _577
REMARK  239  A    between atoms: _577  and  _578
REMARK                            x       y       z     vdW  Elec       q    Type
REMARK                         _______ _______ _______ _____ _____    ______ ____
ROOT
ATOM      1  O   HOH     1      35.102  14.380   8.501  0.00  0.00    +0.000 OA
ENDROOT
TORSDOF 0
REMARK  Name = ../refined-set-2016/2w8w/2w8w_pocket.pdb
REMARK  239 active torsions:
REMARK  status: ('A' for Active; 'I' for Inactive)
REMARK    1  A    between atoms: _1  and  _3
REMARK    2  A    between atoms: _3  and  _4
REMARK    3  A    between atoms: _6  and  _8
REMARK    4  A    between atoms: _8  and  _9
REMARK    5  A    between atoms: _8  and  _11
REMARK    6  A    between atoms: _11  and  _12
REMARK    7  A    between atoms: _17  and  _18
REMARK    8  A    between atoms: _20  and  _22
REMARK    9  A    between atoms: _22  and  _23
REMARK   10  A    between atoms: _22  and  _25
REMARK   11  A    between atoms: _25  and  _26
REMARK   12  A    between atoms: _31  and  _32
REMARK   13  A    between atoms: _34  and  _36
REMARK   14  A    between atoms: _36  and  _37
REMARK   15  A    between atoms: _36  and  _39
REMARK   16  A    between atoms: _39  and  _40
REMARK   17  A    between atoms: _42  and  _44
REMARK   18  A    between atoms: _44  and  _45
REMARK   19  A    between atoms: _44  and  _47
REMARK   20  A    between atoms: _47  and  _48
REMARK   21  A    between atoms: _51  and  _53
REMARK   22  A    between atoms: _53  and  _54
REMARK   23  A    between atoms: _56  and  _58
REMARK   24  A    between atoms: _58  and  _59
REMARK   25  A    between atoms: _58  and  _61
REMARK   26  A    between atoms: _61  and  _62
REMARK   27  A    between atoms: _67  and  _68
REMARK   28  A    between atoms: _70  and  _72
REMARK   29  A    between atoms: _72  and  _73
REMARK   30  A    between atoms: _72  and  _75
REMARK   31  A    between atoms: _75  and  _76
REMARK   32  A    between atoms: _76  and  _77
REMARK   33  A    between atoms: _79  and  _81
REMARK   34  A    between atoms: _81  and  _82
REMARK   35  A    between atoms: _85  and  _87
REMARK   36  A    between atoms: _87  and  _88
REMARK   37  A    between atoms: _87  and  _90
REMARK   38  A    between atoms: _90  and  _91
REMARK   39  A    between atoms: _96  and  _98
REMARK   40  A    between atoms: _98  and  _99
REMARK   41  A    between atoms: _98  and  _101
REMARK   42  A    between atoms: _101  and  _102
REMARK   43  A    between atoms: _105  and  _107
REMARK   44  A    between atoms: _107  and  _108
REMARK   45  A    between atoms: _107  and  _110
REMARK   46  A    between atoms: _110  and  _111
REMARK   47  A    between atoms: _114  and  _116
REMARK   48  A    between atoms: _116  and  _117
REMARK   49  A    between atoms: _116  and  _119
REMARK   50  A    between atoms: _119  and  _120
REMARK   51  A    between atoms: _122  and  _124
REMARK   52  A    between atoms: _124  and  _125
REMARK   53  A    between atoms: _124  and  _127
REMARK   54  A    between atoms: _127  and  _128
REMARK   55  A    between atoms: _133  and  _135
REMARK   56  A    between atoms: _135  and  _136
REMARK   57  A    between atoms: _139  and  _141
REMARK   58  A    between atoms: _141  and  _142
REMARK   59  A    between atoms: _141  and  _144
REMARK   60  A    between atoms: _144  and  _145
REMARK   61  A    between atoms: _147  and  _149
REMARK   62  A    between atoms: _149  and  _150
REMARK   63  A    between atoms: _149  and  _152
REMARK   64  A    between atoms: _152  and  _153
REMARK   65  A    between atoms: _156  and  _158
REMARK   66  A    between atoms: _158  and  _159
REMARK   67  A    between atoms: _158  and  _161
REMARK   68  A    between atoms: _161  and  _162
REMARK   69  A    between atoms: _165  and  _167
REMARK   70  A    between atoms: _167  and  _168
REMARK   71  A    between atoms: _167  and  _170
REMARK   72  A    between atoms: _170  and  _171
REMARK   73  A    between atoms: _171  and  _172
REMARK   74  A    between atoms: _175  and  _177
REMARK   75  A    between atoms: _177  and  _178
REMARK   76  A    between atoms: _180  and  _182
REMARK   77  A    between atoms: _182  and  _183
REMARK   78  A    between atoms: _182  and  _185
REMARK   79  A    between atoms: _188  and  _190
REMARK   80  A    between atoms: _190  and  _191
REMARK   81  A    between atoms: _190  and  _193
REMARK   82  A    between atoms: _193  and  _194
REMARK   83  A    between atoms: _199  and  _200
REMARK   84  A    between atoms: _202  and  _204
REMARK   85  A    between atoms: _204  and  _205
REMARK   86  A    between atoms: _204  and  _207
REMARK   87  A    between atoms: _207  and  _208
REMARK   88  A    between atoms: _210  and  _212
REMARK   89  A    between atoms: _212  and  _213
REMARK   90  A    between atoms: _212  and  _215
REMARK   91  A    between atoms: _215  and  _216
REMARK   92  A    between atoms: _216  and  _217
REMARK   93  A    between atoms: _219  and  _221
REMARK   94  A    between atoms: _221  and  _222
REMARK   95  A    between atoms: _221  and  _224
REMARK   96  A    between atoms: _224  and  _225
REMARK   97  A    between atoms: _228  and  _230
REMARK   98  A    between atoms: _230  and  _231
REMARK   99  A    between atoms: _230  and  _233
REMARK  100  A    between atoms: _233  and  _234
REMARK  101  A    between atoms: _234  and  _235
REMARK  102  A    between atoms: _238  and  _240
REMARK  103  A    between atoms: _240  and  _241
REMARK  104  A    between atoms: _244  and  _246
REMARK  105  A    between atoms: _246  and  _247
REMARK  106  A    between atoms: _246  and  _249
REMARK  107  A    between atoms: _249  and  _250
REMARK  108  A    between atoms: _255  and  _257
REMARK  109  A    between atoms: _257  and  _258
REMARK  110  A    between atoms: _257  and  _260
REMARK  111  A    between atoms: _260  and  _261
REMARK  112  A    between atoms: _263  and  _265
REMARK  113  A    between atoms: _265  and  _266
REMARK  114  A    between atoms: _265  and  _268
REMARK  115  A    between atoms: _271  and  _273
REMARK  116  A    between atoms: _273  and  _274
REMARK  117  A    between atoms: _276  and  _278
REMARK  118  A    between atoms: _278  and  _279
REMARK  119  A    between atoms: _278  and  _281
REMARK  120  A    between atoms: _281  and  _282
REMARK  121  A    between atoms: _285  and  _287
REMARK  122  A    between atoms: _287  and  _288
REMARK  123  A    between atoms: _287  and  _290
REMARK  124  A    between atoms: _290  and  _291
REMARK  125  A    between atoms: _297  and  _299
REMARK  126  A    between atoms: _299  and  _300
REMARK  127  A    between atoms: _299  and  _302
REMARK  128  A    between atoms: _302  and  _303
REMARK  129  A    between atoms: _305  and  _307
REMARK  130  A    between atoms: _307  and  _308
REMARK  131  A    between atoms: _307  and  _310
REMARK  132  A    between atoms: _310  and  _311
REMARK  133  A    between atoms: _311  and  _312
REMARK  134  A    between atoms: _312  and  _313
REMARK  135  A    between atoms: _313  and  _314
REMARK  136  A    between atoms: _318  and  _320
REMARK  137  A    between atoms: _320  and  _321
REMARK  138  A    between atoms: _320  and  _323
REMARK  139  A    between atoms: _323  and  _324
REMARK  140  A    between atoms: _327  and  _329
REMARK  141  A    between atoms: _329  and  _330
REMARK  142  A    between atoms: _329  and  _332
REMARK  143  A    between atoms: _335  and  _337
REMARK  144  A    between atoms: _337  and  _338
REMARK  145  A    between atoms: _340  and  _342
REMARK  146  A    between atoms: _342  and  _343
REMARK  147  A    between atoms: _345  and  _347
REMARK  148  A    between atoms: _347  and  _348
REMARK  149  A    between atoms: _347  and  _350
REMARK  150  A    between atoms: _350  and  _351
REMARK  151  A    between atoms: _357  and  _359
REMARK  152  A    between atoms: _359  and  _360
REMARK  153  A    between atoms: _359  and  _362
REMARK  154  A    between atoms: _362  and  _363
REMARK  155  A    between atoms: _366  and  _368
REMARK  156  A    between atoms: _368  and  _369
REMARK  157  A    between atoms: _368  and  _371
REMARK  158  A    between atoms: _371  and  _372
REMARK  159  A    between atoms: _377  and  _379
REMARK  160  A    between atoms: _379  and  _380
REMARK  161  A    between atoms: _379  and  _382
REMARK  162  A    between atoms: _382  and  _383
REMARK  163  A    between atoms: _383  and  _384
REMARK  164  A    between atoms: _384  and  _385
REMARK  165  A    between atoms: _394  and  _396
REMARK  166  A    between atoms: _396  and  _397
REMARK  167  A    between atoms: _396  and  _399
REMARK  168  A    between atoms: _399  and  _400
REMARK  169  A    between atoms: _403  and  _405
REMARK  170  A    between atoms: _405  and  _406
REMARK  171  A    between atoms: _405  and  _408
REMARK  172  A    between atoms: _408  and  _409
REMARK  173  A    between atoms: _414  and  _415
REMARK  174  A    between atoms: _417  and  _419
REMARK  175  A    between atoms: _419  and  _420
REMARK  176  A    between atoms: _422  and  _424
REMARK  177  A    between atoms: _424  and  _425
REMARK  178  A    between atoms: _424  and  _427
REMARK  179  A    between atoms: _427  and  _428
REMARK  180  A    between atoms: _430  and  _432
REMARK  181  A    between atoms: _432  and  _433
REMARK  182  A    between atoms: _432  and  _435
REMARK  183  A    between atoms: _435  and  _436
REMARK  184  A    between atoms: _436  and  _437
REMARK  185  A    between atoms: _437  and  _438
REMARK  186  A    between atoms: _447  and  _449
REMARK  187  A    between atoms: _449  and  _450
REMARK  188  A    between atoms: _449  and  _452
REMARK  189  A    between atoms: _452  and  _453
REMARK  190  A    between atoms: _453  and  _454
REMARK  191  A    between atoms: _456  and  _458
REMARK  192  A    between atoms: _458  and  _459
REMARK  193  A    between atoms: _458  and  _461
REMARK  194  A    between atoms: _461  and  _462
REMARK  195  A    between atoms: _465  and  _467
REMARK  196  A    between atoms: _467  and  _468
REMARK  197  A    between atoms: _467  and  _470
REMARK  198  A    between atoms: _470  and  _471
REMARK  199  A    between atoms: _476  and  _478
REMARK  200  A    between atoms: _478  and  _479
REMARK  201  A    between atoms: _481  and  _483
REMARK  202  A    between atoms: _483  and  _484
REMARK  203  A    between atoms: _483  and  _486
REMARK  204  A    between atoms: _486  and  _487
REMARK  205  A    between atoms: _489  and  _491
REMARK  206  A    between atoms: _491  and  _492
REMARK  207  A    between atoms: _491  and  _494
REMARK  208  A    between atoms: _494  and  _495
REMARK  209  A    between atoms: _495  and  _496
REMARK  210  A    between atoms: _498  and  _500
REMARK  211  A    between atoms: _500  and  _501
REMARK  212  A    between atoms: _500  and  _503
REMARK  213  A    between atoms: _503  and  _504
REMARK  214  A    between atoms: _504  and  _505
REMARK  215  A    between atoms: _505  and  _506
REMARK  216  A    between atoms: _516  and  _517
REMARK  217  A    between atoms: _522  and  _524
REMARK  218  A    between atoms: _524  and  _525
REMARK  219  A    between atoms: _524  and  _527
REMARK  220  A    between atoms: _527  and  _528
REMARK  221  A    between atoms: _533  and  _534
REMARK  222  A    between atoms: _536  and  _538
REMARK  223  A    between atoms: _538  and  _539
REMARK  224  A    between atoms: _538  and  _541
REMARK  225  A    between atoms: _541  and  _542
REMARK  226  A    between atoms: _545  and  _547
REMARK  227  A    between atoms: _547  and  _548
REMARK  228  A    between atoms: _547  and  _550
REMARK  229  A    between atoms: _550  and  _551
REMARK  230  A    between atoms: _557  and  _559
REMARK  231  A    between atoms: _559  and  _560
REMARK  232  A    between atoms: _559  and  _562
REMARK  233  A    between atoms: _562  and  _563
REMARK  234  A    between atoms: _566  and  _568
REMARK  235  A    between atoms: _568  and  _569
REMARK  236  A    between atoms: _572  and  _574
REMARK  237  A    between atoms: _574  and  _575
REMARK  238  A    between atoms: _574  and  _577
REMARK  239  A    between atoms: _577  and  _578
REMARK                            x       y       z     vdW  Elec       q    Type
REMARK                         _______ _______ _______ _____ _____    ______ ____
ROOT
ATOM      1  O   HOH     1      29.261  15.174   9.079  0.00  0.00    +0.000 OA
ENDROOT
TORSDOF 0
REMARK  Name = ../refined-set-2016/2w8w/2w8w_pocket.pdb
REMARK  239 active torsions:
REMARK  status: ('A' for Active; 'I' for Inactive)
REMARK    1  A    between atoms: _1  and  _3
REMARK    2  A    between atoms: _3  and  _4
REMARK    3  A    between atoms: _6  and  _8
REMARK    4  A    between atoms: _8  and  _9
REMARK    5  A    between atoms: _8  and  _11
REMARK    6  A    between atoms: _11  and  _12
REMARK    7  A    between atoms: _17  and  _18
REMARK    8  A    between atoms: _20  and  _22
REMARK    9  A    between atoms: _22  and  _23
REMARK   10  A    between atoms: _22  and  _25
REMARK   11  A    between atoms: _25  and  _26
REMARK   12  A    between atoms: _31  and  _32
REMARK   13  A    between atoms: _34  and  _36
REMARK   14  A    between atoms: _36  and  _37
REMARK   15  A    between atoms: _36  and  _39
REMARK   16  A    between atoms: _39  and  _40
REMARK   17  A    between atoms: _42  and  _44
REMARK   18  A    between atoms: _44  and  _45
REMARK   19  A    between atoms: _44  and  _47
REMARK   20  A    between atoms: _47  and  _48
REMARK   21  A    between atoms: _51  and  _53
REMARK   22  A    between atoms: _53  and  _54
REMARK   23  A    between atoms: _56  and  _58
REMARK   24  A    between atoms: _58  and  _59
REMARK   25  A    between atoms: _58  and  _61
REMARK   26  A    between atoms: _61  and  _62
REMARK   27  A    between atoms: _67  and  _68
REMARK   28  A    between atoms: _70  and  _72
REMARK   29  A    between atoms: _72  and  _73
REMARK   30  A    between atoms: _72  and  _75
REMARK   31  A    between atoms: _75  and  _76
REMARK   32  A    between atoms: _76  and  _77
REMARK   33  A    between atoms: _79  and  _81
REMARK   34  A    between atoms: _81  and  _82
REMARK   35  A    between atoms: _85  and  _87
REMARK   36  A    between atoms: _87  and  _88
REMARK   37  A    between atoms: _87  and  _90
REMARK   38  A    between atoms: _90  and  _91
REMARK   39  A    between atoms: _96  and  _98
REMARK   40  A    between atoms: _98  and  _99
REMARK   41  A    between atoms: _98  and  _101
REMARK   42  A    between atoms: _101  and  _102
REMARK   43  A    between atoms: _105  and  _107
REMARK   44  A    between atoms: _107  and  _108
REMARK   45  A    between atoms: _107  and  _110
REMARK   46  A    between atoms: _110  and  _111
REMARK   47  A    between atoms: _114  and  _116
REMARK   48  A    between atoms: _116  and  _117
REMARK   49  A    between atoms: _116  and  _119
REMARK   50  A    between atoms: _119  and  _120
REMARK   51  A    between atoms: _122  and  _124
REMARK   52  A    between atoms: _124  and  _125
REMARK   53  A    between atoms: _124  and  _127
REMARK   54  A    between atoms: _127  and  _128
REMARK   55  A    between atoms: _133  and  _135
REMARK   56  A    between atoms: _135  and  _136
REMARK   57  A    between atoms: _139  and  _141
REMARK   58  A    between atoms: _141  and  _142
REMARK   59  A    between atoms: _141  and  _144
REMARK   60  A    between atoms: _144  and  _145
REMARK   61  A    between atoms: _147  and  _149
REMARK   62  A    between atoms: _149  and  _150
REMARK   63  A    between atoms: _149  and  _152
REMARK   64  A    between atoms: _152  and  _153
REMARK   65  A    between atoms: _156  and  _158
REMARK   66  A    between atoms: _158  and  _159
REMARK   67  A    between atoms: _158  and  _161
REMARK   68  A    between atoms: _161  and  _162
REMARK   69  A    between atoms: _165  and  _167
REMARK   70  A    between atoms: _167  and  _168
REMARK   71  A    between atoms: _167  and  _170
REMARK   72  A    between atoms: _170  and  _171
REMARK   73  A    between atoms: _171  and  _172
REMARK   74  A    between atoms: _175  and  _177
REMARK   75  A    between atoms: _177  and  _178
REMARK   76  A    between atoms: _180  and  _182
REMARK   77  A    between atoms: _182  and  _183
REMARK   78  A    between atoms: _182  and  _185
REMARK   79  A    between atoms: _188  and  _190
REMARK   80  A    between atoms: _190  and  _191
REMARK   81  A    between atoms: _190  and  _193
REMARK   82  A    between atoms: _193  and  _194
REMARK   83  A    between atoms: _199  and  _200
REMARK   84  A    between atoms: _202  and  _204
REMARK   85  A    between atoms: _204  and  _205
REMARK   86  A    between atoms: _204  and  _207
REMARK   87  A    between atoms: _207  and  _208
REMARK   88  A    between atoms: _210  and  _212
REMARK   89  A    between atoms: _212  and  _213
REMARK   90  A    between atoms: _212  and  _215
REMARK   91  A    between atoms: _215  and  _216
REMARK   92  A    between atoms: _216  and  _217
REMARK   93  A    between atoms: _219  and  _221
REMARK   94  A    between atoms: _221  and  _222
REMARK   95  A    between atoms: _221  and  _224
REMARK   96  A    between atoms: _224  and  _225
REMARK   97  A    between atoms: _228  and  _230
REMARK   98  A    between atoms: _230  and  _231
REMARK   99  A    between atoms: _230  and  _233
REMARK  100  A    between atoms: _233  and  _234
REMARK  101  A    between atoms: _234  and  _235
REMARK  102  A    between atoms: _238  and  _240
REMARK  103  A    between atoms: _240  and  _241
REMARK  104  A    between atoms: _244  and  _246
REMARK  105  A    between atoms: _246  and  _247
REMARK  106  A    between atoms: _246  and  _249
REMARK  107  A    between atoms: _249  and  _250
REMARK  108  A    between atoms: _255  and  _257
REMARK  109  A    between atoms: _257  and  _258
REMARK  110  A    between atoms: _257  and  _260
REMARK  111  A    between atoms: _260  and  _261
REMARK  112  A    between atoms: _263  and  _265
REMARK  113  A    between atoms: _265  and  _266
REMARK  114  A    between atoms: _265  and  _268
REMARK  115  A    between atoms: _271  and  _273
REMARK  116  A    between atoms: _273  and  _274
REMARK  117  A    between atoms: _276  and  _278
REMARK  118  A    between atoms: _278  and  _279
REMARK  119  A    between atoms: _278  and  _281
REMARK  120  A    between atoms: _281  and  _282
REMARK  121  A    between atoms: _285  and  _287
REMARK  122  A    between atoms: _287  and  _288
REMARK  123  A    between atoms: _287  and  _290
REMARK  124  A    between atoms: _290  and  _291
REMARK  125  A    between atoms: _297  and  _299
REMARK  126  A    between atoms: _299  and  _300
REMARK  127  A    between atoms: _299  and  _302
REMARK  128  A    between atoms: _302  and  _303
REMARK  129  A    between atoms: _305  and  _307
REMARK  130  A    between atoms: _307  and  _308
REMARK  131  A    between atoms: _307  and  _310
REMARK  132  A    between atoms: _310  and  _311
REMARK  133  A    between atoms: _311  and  _312
REMARK  134  A    between atoms: _312  and  _313
REMARK  135  A    between atoms: _313  and  _314
REMARK  136  A    between atoms: _318  and  _320
REMARK  137  A    between atoms: _320  and  _321
REMARK  138  A    between atoms: _320  and  _323
REMARK  139  A    between atoms: _323  and  _324
REMARK  140  A    between atoms: _327  and  _329
REMARK  141  A    between atoms: _329  and  _330
REMARK  142  A    between atoms: _329  and  _332
REMARK  143  A    between atoms: _335  and  _337
REMARK  144  A    between atoms: _337  and  _338
REMARK  145  A    between atoms: _340  and  _342
REMARK  146  A    between atoms: _342  and  _343
REMARK  147  A    between atoms: _345  and  _347
REMARK  148  A    between atoms: _347  and  _348
REMARK  149  A    between atoms: _347  and  _350
REMARK  150  A    between atoms: _350  and  _351
REMARK  151  A    between atoms: _357  and  _359
REMARK  152  A    between atoms: _359  and  _360
REMARK  153  A    between atoms: _359  and  _362
REMARK  154  A    between atoms: _362  and  _363
REMARK  155  A    between atoms: _366  and  _368
REMARK  156  A    between atoms: _368  and  _369
REMARK  157  A    between atoms: _368  and  _371
REMARK  158  A    between atoms: _371  and  _372
REMARK  159  A    between atoms: _377  and  _379
REMARK  160  A    between atoms: _379  and  _380
REMARK  161  A    between atoms: _379  and  _382
REMARK  162  A    between atoms: _382  and  _383
REMARK  163  A    between atoms: _383  and  _384
REMARK  164  A    between atoms: _384  and  _385
REMARK  165  A    between atoms: _394  and  _396
REMARK  166  A    between atoms: _396  and  _397
REMARK  167  A    between atoms: _396  and  _399
REMARK  168  A    between atoms: _399  and  _400
REMARK  169  A    between atoms: _403  and  _405
REMARK  170  A    between atoms: _405  and  _406
REMARK  171  A    between atoms: _405  and  _408
REMARK  172  A    between atoms: _408  and  _409
REMARK  173  A    between atoms: _414  and  _415
REMARK  174  A    between atoms: _417  and  _419
REMARK  175  A    between atoms: _419  and  _420
REMARK  176  A    between atoms: _422  and  _424
REMARK  177  A    between atoms: _424  and  _425
REMARK  178  A    between atoms: _424  and  _427
REMARK  179  A    between atoms: _427  and  _428
REMARK  180  A    between atoms: _430  and  _432
REMARK  181  A    between atoms: _432  and  _433
REMARK  182  A    between atoms: _432  and  _435
REMARK  183  A    between atoms: _435  and  _436
REMARK  184  A    between atoms: _436  and  _437
REMARK  185  A    between atoms: _437  and  _438
REMARK  186  A    between atoms: _447  and  _449
REMARK  187  A    between atoms: _449  and  _450
REMARK  188  A    between atoms: _449  and  _452
REMARK  189  A    between atoms: _452  and  _453
REMARK  190  A    between atoms: _453  and  _454
REMARK  191  A    between atoms: _456  and  _458
REMARK  192  A    between atoms: _458  and  _459
REMARK  193  A    between atoms: _458  and  _461
REMARK  194  A    between atoms: _461  and  _462
REMARK  195  A    between atoms: _465  and  _467
REMARK  196  A    between atoms: _467  and  _468
REMARK  197  A    between atoms: _467  and  _470
REMARK  198  A    between atoms: _470  and  _471
REMARK  199  A    between atoms: _476  and  _478
REMARK  200  A    between atoms: _478  and  _479
REMARK  201  A    between atoms: _481  and  _483
REMARK  202  A    between atoms: _483  and  _484
REMARK  203  A    between atoms: _483  and  _486
REMARK  204  A    between atoms: _486  and  _487
REMARK  205  A    between atoms: _489  and  _491
REMARK  206  A    between atoms: _491  and  _492
REMARK  207  A    between atoms: _491  and  _494
REMARK  208  A    between atoms: _494  and  _495
REMARK  209  A    between atoms: _495  and  _496
REMARK  210  A    between atoms: _498  and  _500
REMARK  211  A    between atoms: _500  and  _501
REMARK  212  A    between atoms: _500  and  _503
REMARK  213  A    between atoms: _503  and  _504
REMARK  214  A    between atoms: _504  and  _505
REMARK  215  A    between atoms: _505  and  _506
REMARK  216  A    between atoms: _516  and  _517
REMARK  217  A    between atoms: _522  and  _524
REMARK  218  A    between atoms: _524  and  _525
REMARK  219  A    between atoms: _524  and  _527
REMARK  220  A    between atoms: _527  and  _528
REMARK  221  A    between atoms: _533  and  _534
REMARK  222  A    between atoms: _536  and  _538
REMARK  223  A    between atoms: _538  and  _539
REMARK  224  A    between atoms: _538  and  _541
REMARK  225  A    between atoms: _541  and  _542
REMARK  226  A    between atoms: _545  and  _547
REMARK  227  A    between atoms: _547  and  _548
REMARK  228  A    between atoms: _547  and  _550
REMARK  229  A    between atoms: _550  and  _551
REMARK  230  A    between atoms: _557  and  _559
REMARK  231  A    between atoms: _559  and  _560
REMARK  232  A    between atoms: _559  and  _562
REMARK  233  A    between atoms: _562  and  _563
REMARK  234  A    between atoms: _566  and  _568
REMARK  235  A    between atoms: _568  and  _569
REMARK  236  A    between atoms: _572  and  _574
REMARK  237  A    between atoms: _574  and  _575
REMARK  238  A    between atoms: _574  and  _577
REMARK  239  A    between atoms: _577  and  _578
REMARK                            x       y       z     vdW  Elec       q    Type
REMARK                         _______ _______ _______ _____ _____    ______ ____
ROOT
ATOM      1  O   HOH     1      31.535  12.228   8.947  0.00  0.00    +0.000 OA
ENDROOT
TORSDOF 0
REMARK  Name = ../refined-set-2016/2w8w/2w8w_pocket.pdb
REMARK  239 active torsions:
REMARK  status: ('A' for Active; 'I' for Inactive)
REMARK    1  A    between atoms: _1  and  _3
REMARK    2  A    between atoms: _3  and  _4
REMARK    3  A    between atoms: _6  and  _8
REMARK    4  A    between atoms: _8  and  _9
REMARK    5  A    between atoms: _8  and  _11
REMARK    6  A    between atoms: _11  and  _12
REMARK    7  A    between atoms: _17  and  _18
REMARK    8  A    between atoms: _20  and  _22
REMARK    9  A    between atoms: _22  and  _23
REMARK   10  A    between atoms: _22  and  _25
REMARK   11  A    between atoms: _25  and  _26
REMARK   12  A    between atoms: _31  and  _32
REMARK   13  A    between atoms: _34  and  _36
REMARK   14  A    between atoms: _36  and  _37
REMARK   15  A    between atoms: _36  and  _39
REMARK   16  A    between atoms: _39  and  _40
REMARK   17  A    between atoms: _42  and  _44
REMARK   18  A    between atoms: _44  and  _45
REMARK   19  A    between atoms: _44  and  _47
REMARK   20  A    between atoms: _47  and  _48
REMARK   21  A    between atoms: _51  and  _53
REMARK   22  A    between atoms: _53  and  _54
REMARK   23  A    between atoms: _56  and  _58
REMARK   24  A    between atoms: _58  and  _59
REMARK   25  A    between atoms: _58  and  _61
REMARK   26  A    between atoms: _61  and  _62
REMARK   27  A    between atoms: _67  and  _68
REMARK   28  A    between atoms: _70  and  _72
REMARK   29  A    between atoms: _72  and  _73
REMARK   30  A    between atoms: _72  and  _75
REMARK   31  A    between atoms: _75  and  _76
REMARK   32  A    between atoms: _76  and  _77
REMARK   33  A    between atoms: _79  and  _81
REMARK   34  A    between atoms: _81  and  _82
REMARK   35  A    between atoms: _85  and  _87
REMARK   36  A    between atoms: _87  and  _88
REMARK   37  A    between atoms: _87  and  _90
REMARK   38  A    between atoms: _90  and  _91
REMARK   39  A    between atoms: _96  and  _98
REMARK   40  A    between atoms: _98  and  _99
REMARK   41  A    between atoms: _98  and  _101
REMARK   42  A    between atoms: _101  and  _102
REMARK   43  A    between atoms: _105  and  _107
REMARK   44  A    between atoms: _107  and  _108
REMARK   45  A    between atoms: _107  and  _110
REMARK   46  A    between atoms: _110  and  _111
REMARK   47  A    between atoms: _114  and  _116
REMARK   48  A    between atoms: _116  and  _117
REMARK   49  A    between atoms: _116  and  _119
REMARK   50  A    between atoms: _119  and  _120
REMARK   51  A    between atoms: _122  and  _124
REMARK   52  A    between atoms: _124  and  _125
REMARK   53  A    between atoms: _124  and  _127
REMARK   54  A    between atoms: _127  and  _128
REMARK   55  A    between atoms: _133  and  _135
REMARK   56  A    between atoms: _135  and  _136
REMARK   57  A    between atoms: _139  and  _141
REMARK   58  A    between atoms: _141  and  _142
REMARK   59  A    between atoms: _141  and  _144
REMARK   60  A    between atoms: _144  and  _145
REMARK   61  A    between atoms: _147  and  _149
REMARK   62  A    between atoms: _149  and  _150
REMARK   63  A    between atoms: _149  and  _152
REMARK   64  A    between atoms: _152  and  _153
REMARK   65  A    between atoms: _156  and  _158
REMARK   66  A    between atoms: _158  and  _159
REMARK   67  A    between atoms: _158  and  _161
REMARK   68  A    between atoms: _161  and  _162
REMARK   69  A    between atoms: _165  and  _167
REMARK   70  A    between atoms: _167  and  _168
REMARK   71  A    between atoms: _167  and  _170
REMARK   72  A    between atoms: _170  and  _171
REMARK   73  A    between atoms: _171  and  _172
REMARK   74  A    between atoms: _175  and  _177
REMARK   75  A    between atoms: _177  and  _178
REMARK   76  A    between atoms: _180  and  _182
REMARK   77  A    between atoms: _182  and  _183
REMARK   78  A    between atoms: _182  and  _185
REMARK   79  A    between atoms: _188  and  _190
REMARK   80  A    between atoms: _190  and  _191
REMARK   81  A    between atoms: _190  and  _193
REMARK   82  A    between atoms: _193  and  _194
REMARK   83  A    between atoms: _199  and  _200
REMARK   84  A    between atoms: _202  and  _204
REMARK   85  A    between atoms: _204  and  _205
REMARK   86  A    between atoms: _204  and  _207
REMARK   87  A    between atoms: _207  and  _208
REMARK   88  A    between atoms: _210  and  _212
REMARK   89  A    between atoms: _212  and  _213
REMARK   90  A    between atoms: _212  and  _215
REMARK   91  A    between atoms: _215  and  _216
REMARK   92  A    between atoms: _216  and  _217
REMARK   93  A    between atoms: _219  and  _221
REMARK   94  A    between atoms: _221  and  _222
REMARK   95  A    between atoms: _221  and  _224
REMARK   96  A    between atoms: _224  and  _225
REMARK   97  A    between atoms: _228  and  _230
REMARK   98  A    between atoms: _230  and  _231
REMARK   99  A    between atoms: _230  and  _233
REMARK  100  A    between atoms: _233  and  _234
REMARK  101  A    between atoms: _234  and  _235
REMARK  102  A    between atoms: _238  and  _240
REMARK  103  A    between atoms: _240  and  _241
REMARK  104  A    between atoms: _244  and  _246
REMARK  105  A    between atoms: _246  and  _247
REMARK  106  A    between atoms: _246  and  _249
REMARK  107  A    between atoms: _249  and  _250
REMARK  108  A    between atoms: _255  and  _257
REMARK  109  A    between atoms: _257  and  _258
REMARK  110  A    between atoms: _257  and  _260
REMARK  111  A    between atoms: _260  and  _261
REMARK  112  A    between atoms: _263  and  _265
REMARK  113  A    between atoms: _265  and  _266
REMARK  114  A    between atoms: _265  and  _268
REMARK  115  A    between atoms: _271  and  _273
REMARK  116  A    between atoms: _273  and  _274
REMARK  117  A    between atoms: _276  and  _278
REMARK  118  A    between atoms: _278  and  _279
REMARK  119  A    between atoms: _278  and  _281
REMARK  120  A    between atoms: _281  and  _282
REMARK  121  A    between atoms: _285  and  _287
REMARK  122  A    between atoms: _287  and  _288
REMARK  123  A    between atoms: _287  and  _290
REMARK  124  A    between atoms: _290  and  _291
REMARK  125  A    between atoms: _297  and  _299
REMARK  126  A    between atoms: _299  and  _300
REMARK  127  A    between atoms: _299  and  _302
REMARK  128  A    between atoms: _302  and  _303
REMARK  129  A    between atoms: _305  and  _307
REMARK  130  A    between atoms: _307  and  _308
REMARK  131  A    between atoms: _307  and  _310
REMARK  132  A    between atoms: _310  and  _311
REMARK  133  A    between atoms: _311  and  _312
REMARK  134  A    between atoms: _312  and  _313
REMARK  135  A    between atoms: _313  and  _314
REMARK  136  A    between atoms: _318  and  _320
REMARK  137  A    between atoms: _320  and  _321
REMARK  138  A    between atoms: _320  and  _323
REMARK  139  A    between atoms: _323  and  _324
REMARK  140  A    between atoms: _327  and  _329
REMARK  141  A    between atoms: _329  and  _330
REMARK  142  A    between atoms: _329  and  _332
REMARK  143  A    between atoms: _335  and  _337
REMARK  144  A    between atoms: _337  and  _338
REMARK  145  A    between atoms: _340  and  _342
REMARK  146  A    between atoms: _342  and  _343
REMARK  147  A    between atoms: _345  and  _347
REMARK  148  A    between atoms: _347  and  _348
REMARK  149  A    between atoms: _347  and  _350
REMARK  150  A    between atoms: _350  and  _351
REMARK  151  A    between atoms: _357  and  _359
REMARK  152  A    between atoms: _359  and  _360
REMARK  153  A    between atoms: _359  and  _362
REMARK  154  A    between atoms: _362  and  _363
REMARK  155  A    between atoms: _366  and  _368
REMARK  156  A    between atoms: _368  and  _369
REMARK  157  A    between atoms: _368  and  _371
REMARK  158  A    between atoms: _371  and  _372
REMARK  159  A    between atoms: _377  and  _379
REMARK  160  A    between atoms: _379  and  _380
REMARK  161  A    between atoms: _379  and  _382
REMARK  162  A    between atoms: _382  and  _383
REMARK  163  A    between atoms: _383  and  _384
REMARK  164  A    between atoms: _384  and  _385
REMARK  165  A    between atoms: _394  and  _396
REMARK  166  A    between atoms: _396  and  _397
REMARK  167  A    between atoms: _396  and  _399
REMARK  168  A    between atoms: _399  and  _400
REMARK  169  A    between atoms: _403  and  _405
REMARK  170  A    between atoms: _405  and  _406
REMARK  171  A    between atoms: _405  and  _408
REMARK  172  A    between atoms: _408  and  _409
REMARK  173  A    between atoms: _414  and  _415
REMARK  174  A    between atoms: _417  and  _419
REMARK  175  A    between atoms: _419  and  _420
REMARK  176  A    between atoms: _422  and  _424
REMARK  177  A    between atoms: _424  and  _425
REMARK  178  A    between atoms: _424  and  _427
REMARK  179  A    between atoms: _427  and  _428
REMARK  180  A    between atoms: _430  and  _432
REMARK  181  A    between atoms: _432  and  _433
REMARK  182  A    between atoms: _432  and  _435
REMARK  183  A    between atoms: _435  and  _436
REMARK  184  A    between atoms: _436  and  _437
REMARK  185  A    between atoms: _437  and  _438
REMARK  186  A    between atoms: _447  and  _449
REMARK  187  A    between atoms: _449  and  _450
REMARK  188  A    between atoms: _449  and  _452
REMARK  189  A    between atoms: _452  and  _453
REMARK  190  A    between atoms: _453  and  _454
REMARK  191  A    between atoms: _456  and  _458
REMARK  192  A    between atoms: _458  and  _459
REMARK  193  A    between atoms: _458  and  _461
REMARK  194  A    between atoms: _461  and  _462
REMARK  195  A    between atoms: _465  and  _467
REMARK  196  A    between atoms: _467  and  _468
REMARK  197  A    between atoms: _467  and  _470
REMARK  198  A    between atoms: _470  and  _471
REMARK  199  A    between atoms: _476  and  _478
REMARK  200  A    between atoms: _478  and  _479
REMARK  201  A    between atoms: _481  and  _483
REMARK  202  A    between atoms: _483  and  _484
REMARK  203  A    between atoms: _483  and  _486
REMARK  204  A    between atoms: _486  and  _487
REMARK  205  A    between atoms: _489  and  _491
REMARK  206  A    between atoms: _491  and  _492
REMARK  207  A    between atoms: _491  and  _494
REMARK  208  A    between atoms: _494  and  _495
REMARK  209  A    between atoms: _495  and  _496
REMARK  210  A    between atoms: _498  and  _500
REMARK  211  A    between atoms: _500  and  _501
REMARK  212  A    between atoms: _500  and  _503
REMARK  213  A    between atoms: _503  and  _504
REMARK  214  A    between atoms: _504  and  _505
REMARK  215  A    between atoms: _505  and  _506
REMARK  216  A    between atoms: _516  and  _517
REMARK  217  A    between atoms: _522  and  _524
REMARK  218  A    between atoms: _524  and  _525
REMARK  219  A    between atoms: _524  and  _527
REMARK  220  A    between atoms: _527  and  _528
REMARK  221  A    between atoms: _533  and  _534
REMARK  222  A    between atoms: _536  and  _538
REMARK  223  A    between atoms: _538  and  _539
REMARK  224  A    between atoms: _538  and  _541
REMARK  225  A    between atoms: _541  and  _542
REMARK  226  A    between atoms: _545  and  _547
REMARK  227  A    between atoms: _547  and  _548
REMARK  228  A    between atoms: _547  and  _550
REMARK  229  A    between atoms: _550  and  _551
REMARK  230  A    between atoms: _557  and  _559
REMARK  231  A    between atoms: _559  and  _560
REMARK  232  A    between atoms: _559  and  _562
REMARK  233  A    between atoms: _562  and  _563
REMARK  234  A    between atoms: _566  and  _568
REMARK  235  A    between atoms: _568  and  _569
REMARK  236  A    between atoms: _572  and  _574
REMARK  237  A    between atoms: _574  and  _575
REMARK  238  A    between atoms: _574  and  _577
REMARK  239  A    between atoms: _577  and  _578
REMARK                            x       y       z     vdW  Elec       q    Type
REMARK                         _______ _______ _______ _____ _____    ______ ____
ROOT
ATOM      1  O   HOH     1      33.113  20.750   7.016  0.00  0.00    +0.000 OA
ENDROOT
TORSDOF 0
REMARK  Name = ../refined-set-2016/2w8w/2w8w_pocket.pdb
REMARK  239 active torsions:
REMARK  status: ('A' for Active; 'I' for Inactive)
REMARK    1  A    between atoms: _1  and  _3
REMARK    2  A    between atoms: _3  and  _4
REMARK    3  A    between atoms: _6  and  _8
REMARK    4  A    between atoms: _8  and  _9
REMARK    5  A    between atoms: _8  and  _11
REMARK    6  A    between atoms: _11  and  _12
REMARK    7  A    between atoms: _17  and  _18
REMARK    8  A    between atoms: _20  and  _22
REMARK    9  A    between atoms: _22  and  _23
REMARK   10  A    between atoms: _22  and  _25
REMARK   11  A    between atoms: _25  and  _26
REMARK   12  A    between atoms: _31  and  _32
REMARK   13  A    between atoms: _34  and  _36
REMARK   14  A    between atoms: _36  and  _37
REMARK   15  A    between atoms: _36  and  _39
REMARK   16  A    between atoms: _39  and  _40
REMARK   17  A    between atoms: _42  and  _44
REMARK   18  A    between atoms: _44  and  _45
REMARK   19  A    between atoms: _44  and  _47
REMARK   20  A    between atoms: _47  and  _48
REMARK   21  A    between atoms: _51  and  _53
REMARK   22  A    between atoms: _53  and  _54
REMARK   23  A    between atoms: _56  and  _58
REMARK   24  A    between atoms: _58  and  _59
REMARK   25  A    between atoms: _58  and  _61
REMARK   26  A    between atoms: _61  and  _62
REMARK   27  A    between atoms: _67  and  _68
REMARK   28  A    between atoms: _70  and  _72
REMARK   29  A    between atoms: _72  and  _73
REMARK   30  A    between atoms: _72  and  _75
REMARK   31  A    between atoms: _75  and  _76
REMARK   32  A    between atoms: _76  and  _77
REMARK   33  A    between atoms: _79  and  _81
REMARK   34  A    between atoms: _81  and  _82
REMARK   35  A    between atoms: _85  and  _87
REMARK   36  A    between atoms: _87  and  _88
REMARK   37  A    between atoms: _87  and  _90
REMARK   38  A    between atoms: _90  and  _91
REMARK   39  A    between atoms: _96  and  _98
REMARK   40  A    between atoms: _98  and  _99
REMARK   41  A    between atoms: _98  and  _101
REMARK   42  A    between atoms: _101  and  _102
REMARK   43  A    between atoms: _105  and  _107
REMARK   44  A    between atoms: _107  and  _108
REMARK   45  A    between atoms: _107  and  _110
REMARK   46  A    between atoms: _110  and  _111
REMARK   47  A    between atoms: _114  and  _116
REMARK   48  A    between atoms: _116  and  _117
REMARK   49  A    between atoms: _116  and  _119
REMARK   50  A    between atoms: _119  and  _120
REMARK   51  A    between atoms: _122  and  _124
REMARK   52  A    between atoms: _124  and  _125
REMARK   53  A    between atoms: _124  and  _127
REMARK   54  A    between atoms: _127  and  _128
REMARK   55  A    between atoms: _133  and  _135
REMARK   56  A    between atoms: _135  and  _136
REMARK   57  A    between atoms: _139  and  _141
REMARK   58  A    between atoms: _141  and  _142
REMARK   59  A    between atoms: _141  and  _144
REMARK   60  A    between atoms: _144  and  _145
REMARK   61  A    between atoms: _147  and  _149
REMARK   62  A    between atoms: _149  and  _150
REMARK   63  A    between atoms: _149  and  _152
REMARK   64  A    between atoms: _152  and  _153
REMARK   65  A    between atoms: _156  and  _158
REMARK   66  A    between atoms: _158  and  _159
REMARK   67  A    between atoms: _158  and  _161
REMARK   68  A    between atoms: _161  and  _162
REMARK   69  A    between atoms: _165  and  _167
REMARK   70  A    between atoms: _167  and  _168
REMARK   71  A    between atoms: _167  and  _170
REMARK   72  A    between atoms: _170  and  _171
REMARK   73  A    between atoms: _171  and  _172
REMARK   74  A    between atoms: _175  and  _177
REMARK   75  A    between atoms: _177  and  _178
REMARK   76  A    between atoms: _180  and  _182
REMARK   77  A    between atoms: _182  and  _183
REMARK   78  A    between atoms: _182  and  _185
REMARK   79  A    between atoms: _188  and  _190
REMARK   80  A    between atoms: _190  and  _191
REMARK   81  A    between atoms: _190  and  _193
REMARK   82  A    between atoms: _193  and  _194
REMARK   83  A    between atoms: _199  and  _200
REMARK   84  A    between atoms: _202  and  _204
REMARK   85  A    between atoms: _204  and  _205
REMARK   86  A    between atoms: _204  and  _207
REMARK   87  A    between atoms: _207  and  _208
REMARK   88  A    between atoms: _210  and  _212
REMARK   89  A    between atoms: _212  and  _213
REMARK   90  A    between atoms: _212  and  _215
REMARK   91  A    between atoms: _215  and  _216
REMARK   92  A    between atoms: _216  and  _217
REMARK   93  A    between atoms: _219  and  _221
REMARK   94  A    between atoms: _221  and  _222
REMARK   95  A    between atoms: _221  and  _224
REMARK   96  A    between atoms: _224  and  _225
REMARK   97  A    between atoms: _228  and  _230
REMARK   98  A    between atoms: _230  and  _231
REMARK   99  A    between atoms: _230  and  _233
REMARK  100  A    between atoms: _233  and  _234
REMARK  101  A    between atoms: _234  and  _235
REMARK  102  A    between atoms: _238  and  _240
REMARK  103  A    between atoms: _240  and  _241
REMARK  104  A    between atoms: _244  and  _246
REMARK  105  A    between atoms: _246  and  _247
REMARK  106  A    between atoms: _246  and  _249
REMARK  107  A    between atoms: _249  and  _250
REMARK  108  A    between atoms: _255  and  _257
REMARK  109  A    between atoms: _257  and  _258
REMARK  110  A    between atoms: _257  and  _260
REMARK  111  A    between atoms: _260  and  _261
REMARK  112  A    between atoms: _263  and  _265
REMARK  113  A    between atoms: _265  and  _266
REMARK  114  A    between atoms: _265  and  _268
REMARK  115  A    between atoms: _271  and  _273
REMARK  116  A    between atoms: _273  and  _274
REMARK  117  A    between atoms: _276  and  _278
REMARK  118  A    between atoms: _278  and  _279
REMARK  119  A    between atoms: _278  and  _281
REMARK  120  A    between atoms: _281  and  _282
REMARK  121  A    between atoms: _285  and  _287
REMARK  122  A    between atoms: _287  and  _288
REMARK  123  A    between atoms: _287  and  _290
REMARK  124  A    between atoms: _290  and  _291
REMARK  125  A    between atoms: _297  and  _299
REMARK  126  A    between atoms: _299  and  _300
REMARK  127  A    between atoms: _299  and  _302
REMARK  128  A    between atoms: _302  and  _303
REMARK  129  A    between atoms: _305  and  _307
REMARK  130  A    between atoms: _307  and  _308
REMARK  131  A    between atoms: _307  and  _310
REMARK  132  A    between atoms: _310  and  _311
REMARK  133  A    between atoms: _311  and  _312
REMARK  134  A    between atoms: _312  and  _313
REMARK  135  A    between atoms: _313  and  _314
REMARK  136  A    between atoms: _318  and  _320
REMARK  137  A    between atoms: _320  and  _321
REMARK  138  A    between atoms: _320  and  _323
REMARK  139  A    between atoms: _323  and  _324
REMARK  140  A    between atoms: _327  and  _329
REMARK  141  A    between atoms: _329  and  _330
REMARK  142  A    between atoms: _329  and  _332
REMARK  143  A    between atoms: _335  and  _337
REMARK  144  A    between atoms: _337  and  _338
REMARK  145  A    between atoms: _340  and  _342
REMARK  146  A    between atoms: _342  and  _343
REMARK  147  A    between atoms: _345  and  _347
REMARK  148  A    between atoms: _347  and  _348
REMARK  149  A    between atoms: _347  and  _350
REMARK  150  A    between atoms: _350  and  _351
REMARK  151  A    between atoms: _357  and  _359
REMARK  152  A    between atoms: _359  and  _360
REMARK  153  A    between atoms: _359  and  _362
REMARK  154  A    between atoms: _362  and  _363
REMARK  155  A    between atoms: _366  and  _368
REMARK  156  A    between atoms: _368  and  _369
REMARK  157  A    between atoms: _368  and  _371
REMARK  158  A    between atoms: _371  and  _372
REMARK  159  A    between atoms: _377  and  _379
REMARK  160  A    between atoms: _379  and  _380
REMARK  161  A    between atoms: _379  and  _382
REMARK  162  A    between atoms: _382  and  _383
REMARK  163  A    between atoms: _383  and  _384
REMARK  164  A    between atoms: _384  and  _385
REMARK  165  A    between atoms: _394  and  _396
REMARK  166  A    between atoms: _396  and  _397
REMARK  167  A    between atoms: _396  and  _399
REMARK  168  A    between atoms: _399  and  _400
REMARK  169  A    between atoms: _403  and  _405
REMARK  170  A    between atoms: _405  and  _406
REMARK  171  A    between atoms: _405  and  _408
REMARK  172  A    between atoms: _408  and  _409
REMARK  173  A    between atoms: _414  and  _415
REMARK  174  A    between atoms: _417  and  _419
REMARK  175  A    between atoms: _419  and  _420
REMARK  176  A    between atoms: _422  and  _424
REMARK  177  A    between atoms: _424  and  _425
REMARK  178  A    between atoms: _424  and  _427
REMARK  179  A    between atoms: _427  and  _428
REMARK  180  A    between atoms: _430  and  _432
REMARK  181  A    between atoms: _432  and  _433
REMARK  182  A    between atoms: _432  and  _435
REMARK  183  A    between atoms: _435  and  _436
REMARK  184  A    between atoms: _436  and  _437
REMARK  185  A    between atoms: _437  and  _438
REMARK  186  A    between atoms: _447  and  _449
REMARK  187  A    between atoms: _449  and  _450
REMARK  188  A    between atoms: _449  and  _452
REMARK  189  A    between atoms: _452  and  _453
REMARK  190  A    between atoms: _453  and  _454
REMARK  191  A    between atoms: _456  and  _458
REMARK  192  A    between atoms: _458  and  _459
REMARK  193  A    between atoms: _458  and  _461
REMARK  194  A    between atoms: _461  and  _462
REMARK  195  A    between atoms: _465  and  _467
REMARK  196  A    between atoms: _467  and  _468
REMARK  197  A    between atoms: _467  and  _470
REMARK  198  A    between atoms: _470  and  _471
REMARK  199  A    between atoms: _476  and  _478
REMARK  200  A    between atoms: _478  and  _479
REMARK  201  A    between atoms: _481  and  _483
REMARK  202  A    between atoms: _483  and  _484
REMARK  203  A    between atoms: _483  and  _486
REMARK  204  A    between atoms: _486  and  _487
REMARK  205  A    between atoms: _489  and  _491
REMARK  206  A    between atoms: _491  and  _492
REMARK  207  A    between atoms: _491  and  _494
REMARK  208  A    between atoms: _494  and  _495
REMARK  209  A    between atoms: _495  and  _496
REMARK  210  A    between atoms: _498  and  _500
REMARK  211  A    between atoms: _500  and  _501
REMARK  212  A    between atoms: _500  and  _503
REMARK  213  A    between atoms: _503  and  _504
REMARK  214  A    between atoms: _504  and  _505
REMARK  215  A    between atoms: _505  and  _506
REMARK  216  A    between atoms: _516  and  _517
REMARK  217  A    between atoms: _522  and  _524
REMARK  218  A    between atoms: _524  and  _525
REMARK  219  A    between atoms: _524  and  _527
REMARK  220  A    between atoms: _527  and  _528
REMARK  221  A    between atoms: _533  and  _534
REMARK  222  A    between atoms: _536  and  _538
REMARK  223  A    between atoms: _538  and  _539
REMARK  224  A    between atoms: _538  and  _541
REMARK  225  A    between atoms: _541  and  _542
REMARK  226  A    between atoms: _545  and  _547
REMARK  227  A    between atoms: _547  and  _548
REMARK  228  A    between atoms: _547  and  _550
REMARK  229  A    between atoms: _550  and  _551
REMARK  230  A    between atoms: _557  and  _559
REMARK  231  A    between atoms: _559  and  _560
REMARK  232  A    between atoms: _559  and  _562
REMARK  233  A    between atoms: _562  and  _563
REMARK  234  A    between atoms: _566  and  _568
REMARK  235  A    between atoms: _568  and  _569
REMARK  236  A    between atoms: _572  and  _574
REMARK  237  A    between atoms: _574  and  _575
REMARK  238  A    between atoms: _574  and  _577
REMARK  239  A    between atoms: _577  and  _578
REMARK                            x       y       z     vdW  Elec       q    Type
REMARK                         _______ _______ _______ _____ _____    ______ ____
ROOT
ATOM      1  O   HOH     1      32.944  18.673   8.716  0.00  0.00    +0.000 OA
ENDROOT
TORSDOF 0
REMARK  Name = ../refined-set-2016/2w8w/2w8w_pocket.pdb
REMARK  239 active torsions:
REMARK  status: ('A' for Active; 'I' for Inactive)
REMARK    1  A    between atoms: _1  and  _3
REMARK    2  A    between atoms: _3  and  _4
REMARK    3  A    between atoms: _6  and  _8
REMARK    4  A    between atoms: _8  and  _9
REMARK    5  A    between atoms: _8  and  _11
REMARK    6  A    between atoms: _11  and  _12
REMARK    7  A    between atoms: _17  and  _18
REMARK    8  A    between atoms: _20  and  _22
REMARK    9  A    between atoms: _22  and  _23
REMARK   10  A    between atoms: _22  and  _25
REMARK   11  A    between atoms: _25  and  _26
REMARK   12  A    between atoms: _31  and  _32
REMARK   13  A    between atoms: _34  and  _36
REMARK   14  A    between atoms: _36  and  _37
REMARK   15  A    between atoms: _36  and  _39
REMARK   16  A    between atoms: _39  and  _40
REMARK   17  A    between atoms: _42  and  _44
REMARK   18  A    between atoms: _44  and  _45
REMARK   19  A    between atoms: _44  and  _47
REMARK   20  A    between atoms: _47  and  _48
REMARK   21  A    between atoms: _51  and  _53
REMARK   22  A    between atoms: _53  and  _54
REMARK   23  A    between atoms: _56  and  _58
REMARK   24  A    between atoms: _58  and  _59
REMARK   25  A    between atoms: _58  and  _61
REMARK   26  A    between atoms: _61  and  _62
REMARK   27  A    between atoms: _67  and  _68
REMARK   28  A    between atoms: _70  and  _72
REMARK   29  A    between atoms: _72  and  _73
REMARK   30  A    between atoms: _72  and  _75
REMARK   31  A    between atoms: _75  and  _76
REMARK   32  A    between atoms: _76  and  _77
REMARK   33  A    between atoms: _79  and  _81
REMARK   34  A    between atoms: _81  and  _82
REMARK   35  A    between atoms: _85  and  _87
REMARK   36  A    between atoms: _87  and  _88
REMARK   37  A    between atoms: _87  and  _90
REMARK   38  A    between atoms: _90  and  _91
REMARK   39  A    between atoms: _96  and  _98
REMARK   40  A    between atoms: _98  and  _99
REMARK   41  A    between atoms: _98  and  _101
REMARK   42  A    between atoms: _101  and  _102
REMARK   43  A    between atoms: _105  and  _107
REMARK   44  A    between atoms: _107  and  _108
REMARK   45  A    between atoms: _107  and  _110
REMARK   46  A    between atoms: _110  and  _111
REMARK   47  A    between atoms: _114  and  _116
REMARK   48  A    between atoms: _116  and  _117
REMARK   49  A    between atoms: _116  and  _119
REMARK   50  A    between atoms: _119  and  _120
REMARK   51  A    between atoms: _122  and  _124
REMARK   52  A    between atoms: _124  and  _125
REMARK   53  A    between atoms: _124  and  _127
REMARK   54  A    between atoms: _127  and  _128
REMARK   55  A    between atoms: _133  and  _135
REMARK   56  A    between atoms: _135  and  _136
REMARK   57  A    between atoms: _139  and  _141
REMARK   58  A    between atoms: _141  and  _142
REMARK   59  A    between atoms: _141  and  _144
REMARK   60  A    between atoms: _144  and  _145
REMARK   61  A    between atoms: _147  and  _149
REMARK   62  A    between atoms: _149  and  _150
REMARK   63  A    between atoms: _149  and  _152
REMARK   64  A    between atoms: _152  and  _153
REMARK   65  A    between atoms: _156  and  _158
REMARK   66  A    between atoms: _158  and  _159
REMARK   67  A    between atoms: _158  and  _161
REMARK   68  A    between atoms: _161  and  _162
REMARK   69  A    between atoms: _165  and  _167
REMARK   70  A    between atoms: _167  and  _168
REMARK   71  A    between atoms: _167  and  _170
REMARK   72  A    between atoms: _170  and  _171
REMARK   73  A    between atoms: _171  and  _172
REMARK   74  A    between atoms: _175  and  _177
REMARK   75  A    between atoms: _177  and  _178
REMARK   76  A    between atoms: _180  and  _182
REMARK   77  A    between atoms: _182  and  _183
REMARK   78  A    between atoms: _182  and  _185
REMARK   79  A    between atoms: _188  and  _190
REMARK   80  A    between atoms: _190  and  _191
REMARK   81  A    between atoms: _190  and  _193
REMARK   82  A    between atoms: _193  and  _194
REMARK   83  A    between atoms: _199  and  _200
REMARK   84  A    between atoms: _202  and  _204
REMARK   85  A    between atoms: _204  and  _205
REMARK   86  A    between atoms: _204  and  _207
REMARK   87  A    between atoms: _207  and  _208
REMARK   88  A    between atoms: _210  and  _212
REMARK   89  A    between atoms: _212  and  _213
REMARK   90  A    between atoms: _212  and  _215
REMARK   91  A    between atoms: _215  and  _216
REMARK   92  A    between atoms: _216  and  _217
REMARK   93  A    between atoms: _219  and  _221
REMARK   94  A    between atoms: _221  and  _222
REMARK   95  A    between atoms: _221  and  _224
REMARK   96  A    between atoms: _224  and  _225
REMARK   97  A    between atoms: _228  and  _230
REMARK   98  A    between atoms: _230  and  _231
REMARK   99  A    between atoms: _230  and  _233
REMARK  100  A    between atoms: _233  and  _234
REMARK  101  A    between atoms: _234  and  _235
REMARK  102  A    between atoms: _238  and  _240
REMARK  103  A    between atoms: _240  and  _241
REMARK  104  A    between atoms: _244  and  _246
REMARK  105  A    between atoms: _246  and  _247
REMARK  106  A    between atoms: _246  and  _249
REMARK  107  A    between atoms: _249  and  _250
REMARK  108  A    between atoms: _255  and  _257
REMARK  109  A    between atoms: _257  and  _258
REMARK  110  A    between atoms: _257  and  _260
REMARK  111  A    between atoms: _260  and  _261
REMARK  112  A    between atoms: _263  and  _265
REMARK  113  A    between atoms: _265  and  _266
REMARK  114  A    between atoms: _265  and  _268
REMARK  115  A    between atoms: _271  and  _273
REMARK  116  A    between atoms: _273  and  _274
REMARK  117  A    between atoms: _276  and  _278
REMARK  118  A    between atoms: _278  and  _279
REMARK  119  A    between atoms: _278  and  _281
REMARK  120  A    between atoms: _281  and  _282
REMARK  121  A    between atoms: _285  and  _287
REMARK  122  A    between atoms: _287  and  _288
REMARK  123  A    between atoms: _287  and  _290
REMARK  124  A    between atoms: _290  and  _291
REMARK  125  A    between atoms: _297  and  _299
REMARK  126  A    between atoms: _299  and  _300
REMARK  127  A    between atoms: _299  and  _302
REMARK  128  A    between atoms: _302  and  _303
REMARK  129  A    between atoms: _305  and  _307
REMARK  130  A    between atoms: _307  and  _308
REMARK  131  A    between atoms: _307  and  _310
REMARK  132  A    between atoms: _310  and  _311
REMARK  133  A    between atoms: _311  and  _312
REMARK  134  A    between atoms: _312  and  _313
REMARK  135  A    between atoms: _313  and  _314
REMARK  136  A    between atoms: _318  and  _320
REMARK  137  A    between atoms: _320  and  _321
REMARK  138  A    between atoms: _320  and  _323
REMARK  139  A    between atoms: _323  and  _324
REMARK  140  A    between atoms: _327  and  _329
REMARK  141  A    between atoms: _329  and  _330
REMARK  142  A    between atoms: _329  and  _332
REMARK  143  A    between atoms: _335  and  _337
REMARK  144  A    between atoms: _337  and  _338
REMARK  145  A    between atoms: _340  and  _342
REMARK  146  A    between atoms: _342  and  _343
REMARK  147  A    between atoms: _345  and  _347
REMARK  148  A    between atoms: _347  and  _348
REMARK  149  A    between atoms: _347  and  _350
REMARK  150  A    between atoms: _350  and  _351
REMARK  151  A    between atoms: _357  and  _359
REMARK  152  A    between atoms: _359  and  _360
REMARK  153  A    between atoms: _359  and  _362
REMARK  154  A    between atoms: _362  and  _363
REMARK  155  A    between atoms: _366  and  _368
REMARK  156  A    between atoms: _368  and  _369
REMARK  157  A    between atoms: _368  and  _371
REMARK  158  A    between atoms: _371  and  _372
REMARK  159  A    between atoms: _377  and  _379
REMARK  160  A    between atoms: _379  and  _380
REMARK  161  A    between atoms: _379  and  _382
REMARK  162  A    between atoms: _382  and  _383
REMARK  163  A    between atoms: _383  and  _384
REMARK  164  A    between atoms: _384  and  _385
REMARK  165  A    between atoms: _394  and  _396
REMARK  166  A    between atoms: _396  and  _397
REMARK  167  A    between atoms: _396  and  _399
REMARK  168  A    between atoms: _399  and  _400
REMARK  169  A    between atoms: _403  and  _405
REMARK  170  A    between atoms: _405  and  _406
REMARK  171  A    between atoms: _405  and  _408
REMARK  172  A    between atoms: _408  and  _409
REMARK  173  A    between atoms: _414  and  _415
REMARK  174  A    between atoms: _417  and  _419
REMARK  175  A    between atoms: _419  and  _420
REMARK  176  A    between atoms: _422  and  _424
REMARK  177  A    between atoms: _424  and  _425
REMARK  178  A    between atoms: _424  and  _427
REMARK  179  A    between atoms: _427  and  _428
REMARK  180  A    between atoms: _430  and  _432
REMARK  181  A    between atoms: _432  and  _433
REMARK  182  A    between atoms: _432  and  _435
REMARK  183  A    between atoms: _435  and  _436
REMARK  184  A    between atoms: _436  and  _437
REMARK  185  A    between atoms: _437  and  _438
REMARK  186  A    between atoms: _447  and  _449
REMARK  187  A    between atoms: _449  and  _450
REMARK  188  A    between atoms: _449  and  _452
REMARK  189  A    between atoms: _452  and  _453
REMARK  190  A    between atoms: _453  and  _454
REMARK  191  A    between atoms: _456  and  _458
REMARK  192  A    between atoms: _458  and  _459
REMARK  193  A    between atoms: _458  and  _461
REMARK  194  A    between atoms: _461  and  _462
REMARK  195  A    between atoms: _465  and  _467
REMARK  196  A    between atoms: _467  and  _468
REMARK  197  A    between atoms: _467  and  _470
REMARK  198  A    between atoms: _470  and  _471
REMARK  199  A    between atoms: _476  and  _478
REMARK  200  A    between atoms: _478  and  _479
REMARK  201  A    between atoms: _481  and  _483
REMARK  202  A    between atoms: _483  and  _484
REMARK  203  A    between atoms: _483  and  _486
REMARK  204  A    between atoms: _486  and  _487
REMARK  205  A    between atoms: _489  and  _491
REMARK  206  A    between atoms: _491  and  _492
REMARK  207  A    between atoms: _491  and  _494
REMARK  208  A    between atoms: _494  and  _495
REMARK  209  A    between atoms: _495  and  _496
REMARK  210  A    between atoms: _498  and  _500
REMARK  211  A    between atoms: _500  and  _501
REMARK  212  A    between atoms: _500  and  _503
REMARK  213  A    between atoms: _503  and  _504
REMARK  214  A    between atoms: _504  and  _505
REMARK  215  A    between atoms: _505  and  _506
REMARK  216  A    between atoms: _516  and  _517
REMARK  217  A    between atoms: _522  and  _524
REMARK  218  A    between atoms: _524  and  _525
REMARK  219  A    between atoms: _524  and  _527
REMARK  220  A    between atoms: _527  and  _528
REMARK  221  A    between atoms: _533  and  _534
REMARK  222  A    between atoms: _536  and  _538
REMARK  223  A    between atoms: _538  and  _539
REMARK  224  A    between atoms: _538  and  _541
REMARK  225  A    between atoms: _541  and  _542
REMARK  226  A    between atoms: _545  and  _547
REMARK  227  A    between atoms: _547  and  _548
REMARK  228  A    between atoms: _547  and  _550
REMARK  229  A    between atoms: _550  and  _551
REMARK  230  A    between atoms: _557  and  _559
REMARK  231  A    between atoms: _559  and  _560
REMARK  232  A    between atoms: _559  and  _562
REMARK  233  A    between atoms: _562  and  _563
REMARK  234  A    between atoms: _566  and  _568
REMARK  235  A    between atoms: _568  and  _569
REMARK  236  A    between atoms: _572  and  _574
REMARK  237  A    between atoms: _574  and  _575
REMARK  238  A    between atoms: _574  and  _577
REMARK  239  A    between atoms: _577  and  _578
REMARK                            x       y       z     vdW  Elec       q    Type
REMARK                         _______ _______ _______ _____ _____    ______ ____
ROOT
ATOM      1  O   HOH     1      40.115  18.100  15.171  0.00  0.00    +0.000 OA
ENDROOT
TORSDOF 0
REMARK  Name = ../refined-set-2016/2w8w/2w8w_pocket.pdb
REMARK  239 active torsions:
REMARK  status: ('A' for Active; 'I' for Inactive)
REMARK    1  A    between atoms: _1  and  _3
REMARK    2  A    between atoms: _3  and  _4
REMARK    3  A    between atoms: _6  and  _8
REMARK    4  A    between atoms: _8  and  _9
REMARK    5  A    between atoms: _8  and  _11
REMARK    6  A    between atoms: _11  and  _12
REMARK    7  A    between atoms: _17  and  _18
REMARK    8  A    between atoms: _20  and  _22
REMARK    9  A    between atoms: _22  and  _23
REMARK   10  A    between atoms: _22  and  _25
REMARK   11  A    between atoms: _25  and  _26
REMARK   12  A    between atoms: _31  and  _32
REMARK   13  A    between atoms: _34  and  _36
REMARK   14  A    between atoms: _36  and  _37
REMARK   15  A    between atoms: _36  and  _39
REMARK   16  A    between atoms: _39  and  _40
REMARK   17  A    between atoms: _42  and  _44
REMARK   18  A    between atoms: _44  and  _45
REMARK   19  A    between atoms: _44  and  _47
REMARK   20  A    between atoms: _47  and  _48
REMARK   21  A    between atoms: _51  and  _53
REMARK   22  A    between atoms: _53  and  _54
REMARK   23  A    between atoms: _56  and  _58
REMARK   24  A    between atoms: _58  and  _59
REMARK   25  A    between atoms: _58  and  _61
REMARK   26  A    between atoms: _61  and  _62
REMARK   27  A    between atoms: _67  and  _68
REMARK   28  A    between atoms: _70  and  _72
REMARK   29  A    between atoms: _72  and  _73
REMARK   30  A    between atoms: _72  and  _75
REMARK   31  A    between atoms: _75  and  _76
REMARK   32  A    between atoms: _76  and  _77
REMARK   33  A    between atoms: _79  and  _81
REMARK   34  A    between atoms: _81  and  _82
REMARK   35  A    between atoms: _85  and  _87
REMARK   36  A    between atoms: _87  and  _88
REMARK   37  A    between atoms: _87  and  _90
REMARK   38  A    between atoms: _90  and  _91
REMARK   39  A    between atoms: _96  and  _98
REMARK   40  A    between atoms: _98  and  _99
REMARK   41  A    between atoms: _98  and  _101
REMARK   42  A    between atoms: _101  and  _102
REMARK   43  A    between atoms: _105  and  _107
REMARK   44  A    between atoms: _107  and  _108
REMARK   45  A    between atoms: _107  and  _110
REMARK   46  A    between atoms: _110  and  _111
REMARK   47  A    between atoms: _114  and  _116
REMARK   48  A    between atoms: _116  and  _117
REMARK   49  A    between atoms: _116  and  _119
REMARK   50  A    between atoms: _119  and  _120
REMARK   51  A    between atoms: _122  and  _124
REMARK   52  A    between atoms: _124  and  _125
REMARK   53  A    between atoms: _124  and  _127
REMARK   54  A    between atoms: _127  and  _128
REMARK   55  A    between atoms: _133  and  _135
REMARK   56  A    between atoms: _135  and  _136
REMARK   57  A    between atoms: _139  and  _141
REMARK   58  A    between atoms: _141  and  _142
REMARK   59  A    between atoms: _141  and  _144
REMARK   60  A    between atoms: _144  and  _145
REMARK   61  A    between atoms: _147  and  _149
REMARK   62  A    between atoms: _149  and  _150
REMARK   63  A    between atoms: _149  and  _152
REMARK   64  A    between atoms: _152  and  _153
REMARK   65  A    between atoms: _156  and  _158
REMARK   66  A    between atoms: _158  and  _159
REMARK   67  A    between atoms: _158  and  _161
REMARK   68  A    between atoms: _161  and  _162
REMARK   69  A    between atoms: _165  and  _167
REMARK   70  A    between atoms: _167  and  _168
REMARK   71  A    between atoms: _167  and  _170
REMARK   72  A    between atoms: _170  and  _171
REMARK   73  A    between atoms: _171  and  _172
REMARK   74  A    between atoms: _175  and  _177
REMARK   75  A    between atoms: _177  and  _178
REMARK   76  A    between atoms: _180  and  _182
REMARK   77  A    between atoms: _182  and  _183
REMARK   78  A    between atoms: _182  and  _185
REMARK   79  A    between atoms: _188  and  _190
REMARK   80  A    between atoms: _190  and  _191
REMARK   81  A    between atoms: _190  and  _193
REMARK   82  A    between atoms: _193  and  _194
REMARK   83  A    between atoms: _199  and  _200
REMARK   84  A    between atoms: _202  and  _204
REMARK   85  A    between atoms: _204  and  _205
REMARK   86  A    between atoms: _204  and  _207
REMARK   87  A    between atoms: _207  and  _208
REMARK   88  A    between atoms: _210  and  _212
REMARK   89  A    between atoms: _212  and  _213
REMARK   90  A    between atoms: _212  and  _215
REMARK   91  A    between atoms: _215  and  _216
REMARK   92  A    between atoms: _216  and  _217
REMARK   93  A    between atoms: _219  and  _221
REMARK   94  A    between atoms: _221  and  _222
REMARK   95  A    between atoms: _221  and  _224
REMARK   96  A    between atoms: _224  and  _225
REMARK   97  A    between atoms: _228  and  _230
REMARK   98  A    between atoms: _230  and  _231
REMARK   99  A    between atoms: _230  and  _233
REMARK  100  A    between atoms: _233  and  _234
REMARK  101  A    between atoms: _234  and  _235
REMARK  102  A    between atoms: _238  and  _240
REMARK  103  A    between atoms: _240  and  _241
REMARK  104  A    between atoms: _244  and  _246
REMARK  105  A    between atoms: _246  and  _247
REMARK  106  A    between atoms: _246  and  _249
REMARK  107  A    between atoms: _249  and  _250
REMARK  108  A    between atoms: _255  and  _257
REMARK  109  A    between atoms: _257  and  _258
REMARK  110  A    between atoms: _257  and  _260
REMARK  111  A    between atoms: _260  and  _261
REMARK  112  A    between atoms: _263  and  _265
REMARK  113  A    between atoms: _265  and  _266
REMARK  114  A    between atoms: _265  and  _268
REMARK  115  A    between atoms: _271  and  _273
REMARK  116  A    between atoms: _273  and  _274
REMARK  117  A    between atoms: _276  and  _278
REMARK  118  A    between atoms: _278  and  _279
REMARK  119  A    between atoms: _278  and  _281
REMARK  120  A    between atoms: _281  and  _282
REMARK  121  A    between atoms: _285  and  _287
REMARK  122  A    between atoms: _287  and  _288
REMARK  123  A    between atoms: _287  and  _290
REMARK  124  A    between atoms: _290  and  _291
REMARK  125  A    between atoms: _297  and  _299
REMARK  126  A    between atoms: _299  and  _300
REMARK  127  A    between atoms: _299  and  _302
REMARK  128  A    between atoms: _302  and  _303
REMARK  129  A    between atoms: _305  and  _307
REMARK  130  A    between atoms: _307  and  _308
REMARK  131  A    between atoms: _307  and  _310
REMARK  132  A    between atoms: _310  and  _311
REMARK  133  A    between atoms: _311  and  _312
REMARK  134  A    between atoms: _312  and  _313
REMARK  135  A    between atoms: _313  and  _314
REMARK  136  A    between atoms: _318  and  _320
REMARK  137  A    between atoms: _320  and  _321
REMARK  138  A    between atoms: _320  and  _323
REMARK  139  A    between atoms: _323  and  _324
REMARK  140  A    between atoms: _327  and  _329
REMARK  141  A    between atoms: _329  and  _330
REMARK  142  A    between atoms: _329  and  _332
REMARK  143  A    between atoms: _335  and  _337
REMARK  144  A    between atoms: _337  and  _338
REMARK  145  A    between atoms: _340  and  _342
REMARK  146  A    between atoms: _342  and  _343
REMARK  147  A    between atoms: _345  and  _347
REMARK  148  A    between atoms: _347  and  _348
REMARK  149  A    between atoms: _347  and  _350
REMARK  150  A    between atoms: _350  and  _351
REMARK  151  A    between atoms: _357  and  _359
REMARK  152  A    between atoms: _359  and  _360
REMARK  153  A    between atoms: _359  and  _362
REMARK  154  A    between atoms: _362  and  _363
REMARK  155  A    between atoms: _366  and  _368
REMARK  156  A    between atoms: _368  and  _369
REMARK  157  A    between atoms: _368  and  _371
REMARK  158  A    between atoms: _371  and  _372
REMARK  159  A    between atoms: _377  and  _379
REMARK  160  A    between atoms: _379  and  _380
REMARK  161  A    between atoms: _379  and  _382
REMARK  162  A    between atoms: _382  and  _383
REMARK  163  A    between atoms: _383  and  _384
REMARK  164  A    between atoms: _384  and  _385
REMARK  165  A    between atoms: _394  and  _396
REMARK  166  A    between atoms: _396  and  _397
REMARK  167  A    between atoms: _396  and  _399
REMARK  168  A    between atoms: _399  and  _400
REMARK  169  A    between atoms: _403  and  _405
REMARK  170  A    between atoms: _405  and  _406
REMARK  171  A    between atoms: _405  and  _408
REMARK  172  A    between atoms: _408  and  _409
REMARK  173  A    between atoms: _414  and  _415
REMARK  174  A    between atoms: _417  and  _419
REMARK  175  A    between atoms: _419  and  _420
REMARK  176  A    between atoms: _422  and  _424
REMARK  177  A    between atoms: _424  and  _425
REMARK  178  A    between atoms: _424  and  _427
REMARK  179  A    between atoms: _427  and  _428
REMARK  180  A    between atoms: _430  and  _432
REMARK  181  A    between atoms: _432  and  _433
REMARK  182  A    between atoms: _432  and  _435
REMARK  183  A    between atoms: _435  and  _436
REMARK  184  A    between atoms: _436  and  _437
REMARK  185  A    between atoms: _437  and  _438
REMARK  186  A    between atoms: _447  and  _449
REMARK  187  A    between atoms: _449  and  _450
REMARK  188  A    between atoms: _449  and  _452
REMARK  189  A    between atoms: _452  and  _453
REMARK  190  A    between atoms: _453  and  _454
REMARK  191  A    between atoms: _456  and  _458
REMARK  192  A    between atoms: _458  and  _459
REMARK  193  A    between atoms: _458  and  _461
REMARK  194  A    between atoms: _461  and  _462
REMARK  195  A    between atoms: _465  and  _467
REMARK  196  A    between atoms: _467  and  _468
REMARK  197  A    between atoms: _467  and  _470
REMARK  198  A    between atoms: _470  and  _471
REMARK  199  A    between atoms: _476  and  _478
REMARK  200  A    between atoms: _478  and  _479
REMARK  201  A    between atoms: _481  and  _483
REMARK  202  A    between atoms: _483  and  _484
REMARK  203  A    between atoms: _483  and  _486
REMARK  204  A    between atoms: _486  and  _487
REMARK  205  A    between atoms: _489  and  _491
REMARK  206  A    between atoms: _491  and  _492
REMARK  207  A    between atoms: _491  and  _494
REMARK  208  A    between atoms: _494  and  _495
REMARK  209  A    between atoms: _495  and  _496
REMARK  210  A    between atoms: _498  and  _500
REMARK  211  A    between atoms: _500  and  _501
REMARK  212  A    between atoms: _500  and  _503
REMARK  213  A    between atoms: _503  and  _504
REMARK  214  A    between atoms: _504  and  _505
REMARK  215  A    between atoms: _505  and  _506
REMARK  216  A    between atoms: _516  and  _517
REMARK  217  A    between atoms: _522  and  _524
REMARK  218  A    between atoms: _524  and  _525
REMARK  219  A    between atoms: _524  and  _527
REMARK  220  A    between atoms: _527  and  _528
REMARK  221  A    between atoms: _533  and  _534
REMARK  222  A    between atoms: _536  and  _538
REMARK  223  A    between atoms: _538  and  _539
REMARK  224  A    between atoms: _538  and  _541
REMARK  225  A    between atoms: _541  and  _542
REMARK  226  A    between atoms: _545  and  _547
REMARK  227  A    between atoms: _547  and  _548
REMARK  228  A    between atoms: _547  and  _550
REMARK  229  A    between atoms: _550  and  _551
REMARK  230  A    between atoms: _557  and  _559
REMARK  231  A    between atoms: _559  and  _560
REMARK  232  A    between atoms: _559  and  _562
REMARK  233  A    between atoms: _562  and  _563
REMARK  234  A    between atoms: _566  and  _568
REMARK  235  A    between atoms: _568  and  _569
REMARK  236  A    between atoms: _572  and  _574
REMARK  237  A    between atoms: _574  and  _575
REMARK  238  A    between atoms: _574  and  _577
REMARK  239  A    between atoms: _577  and  _578
REMARK                            x       y       z     vdW  Elec       q    Type
REMARK                         _______ _______ _______ _____ _____    ______ ____
ROOT
ATOM      1  O   HOH     1      39.076  18.133  12.872  0.00  0.00    +0.000 OA
ENDROOT
TORSDOF 0
REMARK  Name = ../refined-set-2016/2w8w/2w8w_pocket.pdb
REMARK  239 active torsions:
REMARK  status: ('A' for Active; 'I' for Inactive)
REMARK    1  A    between atoms: _1  and  _3
REMARK    2  A    between atoms: _3  and  _4
REMARK    3  A    between atoms: _6  and  _8
REMARK    4  A    between atoms: _8  and  _9
REMARK    5  A    between atoms: _8  and  _11
REMARK    6  A    between atoms: _11  and  _12
REMARK    7  A    between atoms: _17  and  _18
REMARK    8  A    between atoms: _20  and  _22
REMARK    9  A    between atoms: _22  and  _23
REMARK   10  A    between atoms: _22  and  _25
REMARK   11  A    between atoms: _25  and  _26
REMARK   12  A    between atoms: _31  and  _32
REMARK   13  A    between atoms: _34  and  _36
REMARK   14  A    between atoms: _36  and  _37
REMARK   15  A    between atoms: _36  and  _39
REMARK   16  A    between atoms: _39  and  _40
REMARK   17  A    between atoms: _42  and  _44
REMARK   18  A    between atoms: _44  and  _45
REMARK   19  A    between atoms: _44  and  _47
REMARK   20  A    between atoms: _47  and  _48
REMARK   21  A    between atoms: _51  and  _53
REMARK   22  A    between atoms: _53  and  _54
REMARK   23  A    between atoms: _56  and  _58
REMARK   24  A    between atoms: _58  and  _59
REMARK   25  A    between atoms: _58  and  _61
REMARK   26  A    between atoms: _61  and  _62
REMARK   27  A    between atoms: _67  and  _68
REMARK   28  A    between atoms: _70  and  _72
REMARK   29  A    between atoms: _72  and  _73
REMARK   30  A    between atoms: _72  and  _75
REMARK   31  A    between atoms: _75  and  _76
REMARK   32  A    between atoms: _76  and  _77
REMARK   33  A    between atoms: _79  and  _81
REMARK   34  A    between atoms: _81  and  _82
REMARK   35  A    between atoms: _85  and  _87
REMARK   36  A    between atoms: _87  and  _88
REMARK   37  A    between atoms: _87  and  _90
REMARK   38  A    between atoms: _90  and  _91
REMARK   39  A    between atoms: _96  and  _98
REMARK   40  A    between atoms: _98  and  _99
REMARK   41  A    between atoms: _98  and  _101
REMARK   42  A    between atoms: _101  and  _102
REMARK   43  A    between atoms: _105  and  _107
REMARK   44  A    between atoms: _107  and  _108
REMARK   45  A    between atoms: _107  and  _110
REMARK   46  A    between atoms: _110  and  _111
REMARK   47  A    between atoms: _114  and  _116
REMARK   48  A    between atoms: _116  and  _117
REMARK   49  A    between atoms: _116  and  _119
REMARK   50  A    between atoms: _119  and  _120
REMARK   51  A    between atoms: _122  and  _124
REMARK   52  A    between atoms: _124  and  _125
REMARK   53  A    between atoms: _124  and  _127
REMARK   54  A    between atoms: _127  and  _128
REMARK   55  A    between atoms: _133  and  _135
REMARK   56  A    between atoms: _135  and  _136
REMARK   57  A    between atoms: _139  and  _141
REMARK   58  A    between atoms: _141  and  _142
REMARK   59  A    between atoms: _141  and  _144
REMARK   60  A    between atoms: _144  and  _145
REMARK   61  A    between atoms: _147  and  _149
REMARK   62  A    between atoms: _149  and  _150
REMARK   63  A    between atoms: _149  and  _152
REMARK   64  A    between atoms: _152  and  _153
REMARK   65  A    between atoms: _156  and  _158
REMARK   66  A    between atoms: _158  and  _159
REMARK   67  A    between atoms: _158  and  _161
REMARK   68  A    between atoms: _161  and  _162
REMARK   69  A    between atoms: _165  and  _167
REMARK   70  A    between atoms: _167  and  _168
REMARK   71  A    between atoms: _167  and  _170
REMARK   72  A    between atoms: _170  and  _171
REMARK   73  A    between atoms: _171  and  _172
REMARK   74  A    between atoms: _175  and  _177
REMARK   75  A    between atoms: _177  and  _178
REMARK   76  A    between atoms: _180  and  _182
REMARK   77  A    between atoms: _182  and  _183
REMARK   78  A    between atoms: _182  and  _185
REMARK   79  A    between atoms: _188  and  _190
REMARK   80  A    between atoms: _190  and  _191
REMARK   81  A    between atoms: _190  and  _193
REMARK   82  A    between atoms: _193  and  _194
REMARK   83  A    between atoms: _199  and  _200
REMARK   84  A    between atoms: _202  and  _204
REMARK   85  A    between atoms: _204  and  _205
REMARK   86  A    between atoms: _204  and  _207
REMARK   87  A    between atoms: _207  and  _208
REMARK   88  A    between atoms: _210  and  _212
REMARK   89  A    between atoms: _212  and  _213
REMARK   90  A    between atoms: _212  and  _215
REMARK   91  A    between atoms: _215  and  _216
REMARK   92  A    between atoms: _216  and  _217
REMARK   93  A    between atoms: _219  and  _221
REMARK   94  A    between atoms: _221  and  _222
REMARK   95  A    between atoms: _221  and  _224
REMARK   96  A    between atoms: _224  and  _225
REMARK   97  A    between atoms: _228  and  _230
REMARK   98  A    between atoms: _230  and  _231
REMARK   99  A    between atoms: _230  and  _233
REMARK  100  A    between atoms: _233  and  _234
REMARK  101  A    between atoms: _234  and  _235
REMARK  102  A    between atoms: _238  and  _240
REMARK  103  A    between atoms: _240  and  _241
REMARK  104  A    between atoms: _244  and  _246
REMARK  105  A    between atoms: _246  and  _247
REMARK  106  A    between atoms: _246  and  _249
REMARK  107  A    between atoms: _249  and  _250
REMARK  108  A    between atoms: _255  and  _257
REMARK  109  A    between atoms: _257  and  _258
REMARK  110  A    between atoms: _257  and  _260
REMARK  111  A    between atoms: _260  and  _261
REMARK  112  A    between atoms: _263  and  _265
REMARK  113  A    between atoms: _265  and  _266
REMARK  114  A    between atoms: _265  and  _268
REMARK  115  A    between atoms: _271  and  _273
REMARK  116  A    between atoms: _273  and  _274
REMARK  117  A    between atoms: _276  and  _278
REMARK  118  A    between atoms: _278  and  _279
REMARK  119  A    between atoms: _278  and  _281
REMARK  120  A    between atoms: _281  and  _282
REMARK  121  A    between atoms: _285  and  _287
REMARK  122  A    between atoms: _287  and  _288
REMARK  123  A    between atoms: _287  and  _290
REMARK  124  A    between atoms: _290  and  _291
REMARK  125  A    between atoms: _297  and  _299
REMARK  126  A    between atoms: _299  and  _300
REMARK  127  A    between atoms: _299  and  _302
REMARK  128  A    between atoms: _302  and  _303
REMARK  129  A    between atoms: _305  and  _307
REMARK  130  A    between atoms: _307  and  _308
REMARK  131  A    between atoms: _307  and  _310
REMARK  132  A    between atoms: _310  and  _311
REMARK  133  A    between atoms: _311  and  _312
REMARK  134  A    between atoms: _312  and  _313
REMARK  135  A    between atoms: _313  and  _314
REMARK  136  A    between atoms: _318  and  _320
REMARK  137  A    between atoms: _320  and  _321
REMARK  138  A    between atoms: _320  and  _323
REMARK  139  A    between atoms: _323  and  _324
REMARK  140  A    between atoms: _327  and  _329
REMARK  141  A    between atoms: _329  and  _330
REMARK  142  A    between atoms: _329  and  _332
REMARK  143  A    between atoms: _335  and  _337
REMARK  144  A    between atoms: _337  and  _338
REMARK  145  A    between atoms: _340  and  _342
REMARK  146  A    between atoms: _342  and  _343
REMARK  147  A    between atoms: _345  and  _347
REMARK  148  A    between atoms: _347  and  _348
REMARK  149  A    between atoms: _347  and  _350
REMARK  150  A    between atoms: _350  and  _351
REMARK  151  A    between atoms: _357  and  _359
REMARK  152  A    between atoms: _359  and  _360
REMARK  153  A    between atoms: _359  and  _362
REMARK  154  A    between atoms: _362  and  _363
REMARK  155  A    between atoms: _366  and  _368
REMARK  156  A    between atoms: _368  and  _369
REMARK  157  A    between atoms: _368  and  _371
REMARK  158  A    between atoms: _371  and  _372
REMARK  159  A    between atoms: _377  and  _379
REMARK  160  A    between atoms: _379  and  _380
REMARK  161  A    between atoms: _379  and  _382
REMARK  162  A    between atoms: _382  and  _383
REMARK  163  A    between atoms: _383  and  _384
REMARK  164  A    between atoms: _384  and  _385
REMARK  165  A    between atoms: _394  and  _396
REMARK  166  A    between atoms: _396  and  _397
REMARK  167  A    between atoms: _396  and  _399
REMARK  168  A    between atoms: _399  and  _400
REMARK  169  A    between atoms: _403  and  _405
REMARK  170  A    between atoms: _405  and  _406
REMARK  171  A    between atoms: _405  and  _408
REMARK  172  A    between atoms: _408  and  _409
REMARK  173  A    between atoms: _414  and  _415
REMARK  174  A    between atoms: _417  and  _419
REMARK  175  A    between atoms: _419  and  _420
REMARK  176  A    between atoms: _422  and  _424
REMARK  177  A    between atoms: _424  and  _425
REMARK  178  A    between atoms: _424  and  _427
REMARK  179  A    between atoms: _427  and  _428
REMARK  180  A    between atoms: _430  and  _432
REMARK  181  A    between atoms: _432  and  _433
REMARK  182  A    between atoms: _432  and  _435
REMARK  183  A    between atoms: _435  and  _436
REMARK  184  A    between atoms: _436  and  _437
REMARK  185  A    between atoms: _437  and  _438
REMARK  186  A    between atoms: _447  and  _449
REMARK  187  A    between atoms: _449  and  _450
REMARK  188  A    between atoms: _449  and  _452
REMARK  189  A    between atoms: _452  and  _453
REMARK  190  A    between atoms: _453  and  _454
REMARK  191  A    between atoms: _456  and  _458
REMARK  192  A    between atoms: _458  and  _459
REMARK  193  A    between atoms: _458  and  _461
REMARK  194  A    between atoms: _461  and  _462
REMARK  195  A    between atoms: _465  and  _467
REMARK  196  A    between atoms: _467  and  _468
REMARK  197  A    between atoms: _467  and  _470
REMARK  198  A    between atoms: _470  and  _471
REMARK  199  A    between atoms: _476  and  _478
REMARK  200  A    between atoms: _478  and  _479
REMARK  201  A    between atoms: _481  and  _483
REMARK  202  A    between atoms: _483  and  _484
REMARK  203  A    between atoms: _483  and  _486
REMARK  204  A    between atoms: _486  and  _487
REMARK  205  A    between atoms: _489  and  _491
REMARK  206  A    between atoms: _491  and  _492
REMARK  207  A    between atoms: _491  and  _494
REMARK  208  A    between atoms: _494  and  _495
REMARK  209  A    between atoms: _495  and  _496
REMARK  210  A    between atoms: _498  and  _500
REMARK  211  A    between atoms: _500  and  _501
REMARK  212  A    between atoms: _500  and  _503
REMARK  213  A    between atoms: _503  and  _504
REMARK  214  A    between atoms: _504  and  _505
REMARK  215  A    between atoms: _505  and  _506
REMARK  216  A    between atoms: _516  and  _517
REMARK  217  A    between atoms: _522  and  _524
REMARK  218  A    between atoms: _524  and  _525
REMARK  219  A    between atoms: _524  and  _527
REMARK  220  A    between atoms: _527  and  _528
REMARK  221  A    between atoms: _533  and  _534
REMARK  222  A    between atoms: _536  and  _538
REMARK  223  A    between atoms: _538  and  _539
REMARK  224  A    between atoms: _538  and  _541
REMARK  225  A    between atoms: _541  and  _542
REMARK  226  A    between atoms: _545  and  _547
REMARK  227  A    between atoms: _547  and  _548
REMARK  228  A    between atoms: _547  and  _550
REMARK  229  A    between atoms: _550  and  _551
REMARK  230  A    between atoms: _557  and  _559
REMARK  231  A    between atoms: _559  and  _560
REMARK  232  A    between atoms: _559  and  _562
REMARK  233  A    between atoms: _562  and  _563
REMARK  234  A    between atoms: _566  and  _568
REMARK  235  A    between atoms: _568  and  _569
REMARK  236  A    between atoms: _572  and  _574
REMARK  237  A    between atoms: _574  and  _575
REMARK  238  A    between atoms: _574  and  _577
REMARK  239  A    between atoms: _577  and  _578
REMARK                            x       y       z     vdW  Elec       q    Type
REMARK                         _______ _______ _______ _____ _____    ______ ____
ROOT
ATOM      1  O   HOH     1      35.033  19.320  17.840  0.00  0.00    +0.000 OA
ENDROOT
TORSDOF 0
