REMARK  Name = ../refined-set-2016/4dy6/4dy6_pocket.pdb
REMARK  253 active torsions:
REMARK  status: ('A' for Active; 'I' for Inactive)
REMARK    1  A    between atoms: _1  and  _3
REMARK    2  A    between atoms: _3  and  _4
REMARK    3  A    between atoms: _3  and  _6
REMARK    4  A    between atoms: _6  and  _7
REMARK    5  A    between atoms: _7  and  _8
REMARK    6  A    between atoms: _8  and  _9
REMARK    7  A    between atoms: _9  and  _10
REMARK    8  A    between atoms: _14  and  _16
REMARK    9  A    between atoms: _16  and  _17
REMARK   10  A    between atoms: _19  and  _21
REMARK   11  A    between atoms: _21  and  _22
REMARK   12  A    between atoms: _24  and  _26
REMARK   13  A    between atoms: _26  and  _27
REMARK   14  A    between atoms: _26  and  _29
REMARK   15  A    between atoms: _29  and  _30
REMARK   16  A    between atoms: _33  and  _35
REMARK   17  A    between atoms: _35  and  _36
REMARK   18  A    between atoms: _38  and  _40
REMARK   19  A    between atoms: _40  and  _41
REMARK   20  A    between atoms: _40  and  _43
REMARK   21  A    between atoms: _43  and  _44
REMARK   22  A    between atoms: _47  and  _49
REMARK   23  A    between atoms: _49  and  _50
REMARK   24  A    between atoms: _49  and  _52
REMARK   25  A    between atoms: _52  and  _53
REMARK   26  A    between atoms: _59  and  _61
REMARK   27  A    between atoms: _61  and  _62
REMARK   28  A    between atoms: _61  and  _64
REMARK   29  A    between atoms: _64  and  _65
REMARK   30  A    between atoms: _68  and  _70
REMARK   31  A    between atoms: _70  and  _71
REMARK   32  A    between atoms: _70  and  _73
REMARK   33  A    between atoms: _73  and  _74
REMARK   34  A    between atoms: _76  and  _78
REMARK   35  A    between atoms: _78  and  _79
REMARK   36  A    between atoms: _78  and  _81
REMARK   37  A    between atoms: _81  and  _82
REMARK   38  A    between atoms: _87  and  _89
REMARK   39  A    between atoms: _89  and  _90
REMARK   40  A    between atoms: _89  and  _92
REMARK   41  A    between atoms: _92  and  _93
REMARK   42  A    between atoms: _96  and  _98
REMARK   43  A    between atoms: _98  and  _99
REMARK   44  A    between atoms: _101  and  _103
REMARK   45  A    between atoms: _103  and  _104
REMARK   46  A    between atoms: _103  and  _106
REMARK   47  A    between atoms: _106  and  _107
REMARK   48  A    between atoms: _112  and  _114
REMARK   49  A    between atoms: _114  and  _115
REMARK   50  A    between atoms: _114  and  _117
REMARK   51  A    between atoms: _117  and  _118
REMARK   52  A    between atoms: _121  and  _123
REMARK   53  A    between atoms: _123  and  _124
REMARK   54  A    between atoms: _126  and  _128
REMARK   55  A    between atoms: _128  and  _129
REMARK   56  A    between atoms: _128  and  _131
REMARK   57  A    between atoms: _131  and  _132
REMARK   58  A    between atoms: _138  and  _140
REMARK   59  A    between atoms: _140  and  _141
REMARK   60  A    between atoms: _140  and  _143
REMARK   61  A    between atoms: _143  and  _144
REMARK   62  A    between atoms: _149  and  _150
REMARK   63  A    between atoms: _152  and  _154
REMARK   64  A    between atoms: _154  and  _155
REMARK   65  A    between atoms: _158  and  _160
REMARK   66  A    between atoms: _160  and  _161
REMARK   67  A    between atoms: _160  and  _163
REMARK   68  A    between atoms: _163  and  _164
REMARK   69  A    between atoms: _167  and  _169
REMARK   70  A    between atoms: _169  and  _170
REMARK   71  A    between atoms: _169  and  _172
REMARK   72  A    between atoms: _172  and  _173
REMARK   73  A    between atoms: _178  and  _180
REMARK   74  A    between atoms: _180  and  _181
REMARK   75  A    between atoms: _180  and  _183
REMARK   76  A    between atoms: _183  and  _184
REMARK   77  A    between atoms: _184  and  _185
REMARK   78  A    between atoms: _188  and  _190
REMARK   79  A    between atoms: _190  and  _191
REMARK   80  A    between atoms: _190  and  _193
REMARK   81  A    between atoms: _193  and  _194
REMARK   82  A    between atoms: _196  and  _198
REMARK   83  A    between atoms: _198  and  _199
REMARK   84  A    between atoms: _198  and  _201
REMARK   85  A    between atoms: _201  and  _202
REMARK   86  A    between atoms: _205  and  _207
REMARK   87  A    between atoms: _207  and  _208
REMARK   88  A    between atoms: _207  and  _210
REMARK   89  A    between atoms: _210  and  _211
REMARK   90  A    between atoms: _211  and  _212
REMARK   91  A    between atoms: _212  and  _213
REMARK   92  A    between atoms: _213  and  _214
REMARK   93  A    between atoms: _218  and  _220
REMARK   94  A    between atoms: _220  and  _221
REMARK   95  A    between atoms: _220  and  _223
REMARK   96  A    between atoms: _225  and  _227
REMARK   97  A    between atoms: _227  and  _228
REMARK   98  A    between atoms: _227  and  _230
REMARK   99  A    between atoms: _230  and  _231
REMARK  100  A    between atoms: _233  and  _235
REMARK  101  A    between atoms: _235  and  _236
REMARK  102  A    between atoms: _235  and  _238
REMARK  103  A    between atoms: _238  and  _239
REMARK  104  A    between atoms: _243  and  _244
REMARK  105  A    between atoms: _249  and  _251
REMARK  106  A    between atoms: _251  and  _252
REMARK  107  A    between atoms: _251  and  _254
REMARK  108  A    between atoms: _254  and  _255
REMARK  109  A    between atoms: _257  and  _259
REMARK  110  A    between atoms: _259  and  _260
REMARK  111  A    between atoms: _262  and  _264
REMARK  112  A    between atoms: _264  and  _265
REMARK  113  A    between atoms: _264  and  _267
REMARK  114  A    between atoms: _267  and  _268
REMARK  115  A    between atoms: _271  and  _273
REMARK  116  A    between atoms: _273  and  _274
REMARK  117  A    between atoms: _273  and  _276
REMARK  118  A    between atoms: _276  and  _277
REMARK  119  A    between atoms: _280  and  _282
REMARK  120  A    between atoms: _282  and  _283
REMARK  121  A    between atoms: _286  and  _288
REMARK  122  A    between atoms: _288  and  _289
REMARK  123  A    between atoms: _288  and  _291
REMARK  124  A    between atoms: _291  and  _292
REMARK  125  A    between atoms: _297  and  _298
REMARK  126  A    between atoms: _300  and  _302
REMARK  127  A    between atoms: _302  and  _303
REMARK  128  A    between atoms: _302  and  _305
REMARK  129  A    between atoms: _305  and  _306
REMARK  130  A    between atoms: _311  and  _313
REMARK  131  A    between atoms: _313  and  _314
REMARK  132  A    between atoms: _313  and  _316
REMARK  133  A    between atoms: _316  and  _317
REMARK  134  A    between atoms: _317  and  _318
REMARK  135  A    between atoms: _318  and  _319
REMARK  136  A    between atoms: _319  and  _320
REMARK  137  A    between atoms: _324  and  _326
REMARK  138  A    between atoms: _326  and  _327
REMARK  139  A    between atoms: _326  and  _329
REMARK  140  A    between atoms: _329  and  _330
REMARK  141  A    between atoms: _332  and  _334
REMARK  142  A    between atoms: _334  and  _335
REMARK  143  A    between atoms: _334  and  _337
REMARK  144  A    between atoms: _337  and  _338
REMARK  145  A    between atoms: _341  and  _343
REMARK  146  A    between atoms: _343  and  _344
REMARK  147  A    between atoms: _343  and  _346
REMARK  148  A    between atoms: _346  and  _347
REMARK  149  A    between atoms: _350  and  _352
REMARK  150  A    between atoms: _352  and  _353
REMARK  151  A    between atoms: _352  and  _355
REMARK  152  A    between atoms: _355  and  _356
REMARK  153  A    between atoms: _356  and  _357
REMARK  154  A    between atoms: _359  and  _361
REMARK  155  A    between atoms: _361  and  _362
REMARK  156  A    between atoms: _361  and  _364
REMARK  157  A    between atoms: _364  and  _365
REMARK  158  A    between atoms: _367  and  _369
REMARK  159  A    between atoms: _369  and  _370
REMARK  160  A    between atoms: _369  and  _372
REMARK  161  A    between atoms: _375  and  _377
REMARK  162  A    between atoms: _377  and  _378
REMARK  163  A    between atoms: _377  and  _380
REMARK  164  A    between atoms: _380  and  _381
REMARK  165  A    between atoms: _384  and  _386
REMARK  166  A    between atoms: _386  and  _387
REMARK  167  A    between atoms: _386  and  _389
REMARK  168  A    between atoms: _389  and  _390
REMARK  169  A    between atoms: _395  and  _397
REMARK  170  A    between atoms: _397  and  _398
REMARK  171  A    between atoms: _397  and  _400
REMARK  172  A    between atoms: _400  and  _401
REMARK  173  A    between atoms: _404  and  _406
REMARK  174  A    between atoms: _406  and  _407
REMARK  175  A    between atoms: _406  and  _409
REMARK  176  A    between atoms: _409  and  _410
REMARK  177  A    between atoms: _416  and  _418
REMARK  178  A    between atoms: _418  and  _419
REMARK  179  A    between atoms: _418  and  _421
REMARK  180  A    between atoms: _421  and  _422
REMARK  181  A    between atoms: _422  and  _423
REMARK  182  A    between atoms: _423  and  _424
REMARK  183  A    between atoms: _433  and  _435
REMARK  184  A    between atoms: _435  and  _436
REMARK  185  A    between atoms: _435  and  _438
REMARK  186  A    between atoms: _441  and  _443
REMARK  187  A    between atoms: _443  and  _444
REMARK  188  A    between atoms: _443  and  _446
REMARK  189  A    between atoms: _446  and  _447
REMARK  190  A    between atoms: _449  and  _451
REMARK  191  A    between atoms: _451  and  _452
REMARK  192  A    between atoms: _451  and  _454
REMARK  193  A    between atoms: _454  and  _455
REMARK  194  A    between atoms: _461  and  _463
REMARK  195  A    between atoms: _463  and  _464
REMARK  196  A    between atoms: _463  and  _466
REMARK  197  A    between atoms: _466  and  _467
REMARK  198  A    between atoms: _469  and  _471
REMARK  199  A    between atoms: _471  and  _472
REMARK  200  A    between atoms: _475  and  _476
REMARK  201  A    between atoms: _481  and  _483
REMARK  202  A    between atoms: _483  and  _484
REMARK  203  A    between atoms: _483  and  _486
REMARK  204  A    between atoms: _486  and  _487
REMARK  205  A    between atoms: _493  and  _495
REMARK  206  A    between atoms: _495  and  _496
REMARK  207  A    between atoms: _495  and  _498
REMARK  208  A    between atoms: _498  and  _499
REMARK  209  A    between atoms: _505  and  _507
REMARK  210  A    between atoms: _507  and  _508
REMARK  211  A    between atoms: _507  and  _510
REMARK  212  A    between atoms: _510  and  _511
REMARK  213  A    between atoms: _511  and  _512
REMARK  214  A    between atoms: _512  and  _513
REMARK  215  A    between atoms: _522  and  _524
REMARK  216  A    between atoms: _524  and  _525
REMARK  217  A    between atoms: _527  and  _529
REMARK  218  A    between atoms: _529  and  _530
REMARK  219  A    between atoms: _529  and  _532
REMARK  220  A    between atoms: _532  and  _533
REMARK  221  A    between atoms: _536  and  _538
REMARK  222  A    between atoms: _538  and  _539
REMARK  223  A    between atoms: _541  and  _543
REMARK  224  A    between atoms: _543  and  _544
REMARK  225  A    between atoms: _543  and  _546
REMARK  226  A    between atoms: _546  and  _547
REMARK  227  A    between atoms: _547  and  _548
REMARK  228  A    between atoms: _550  and  _552
REMARK  229  A    between atoms: _552  and  _553
REMARK  230  A    between atoms: _556  and  _558
REMARK  231  A    between atoms: _558  and  _559
REMARK  232  A    between atoms: _558  and  _561
REMARK  233  A    between atoms: _561  and  _562
REMARK  234  A    between atoms: _564  and  _566
REMARK  235  A    between atoms: _566  and  _567
REMARK  236  A    between atoms: _566  and  _569
REMARK  237  A    between atoms: _569  and  _570
REMARK  238  A    between atoms: _573  and  _575
REMARK  239  A    between atoms: _575  and  _576
REMARK  240  A    between atoms: _575  and  _578
REMARK  241  A    between atoms: _578  and  _579
REMARK  242  A    between atoms: _584  and  _586
REMARK  243  A    between atoms: _586  and  _587
REMARK  244  A    between atoms: _586  and  _589
REMARK  245  A    between atoms: _589  and  _590
REMARK  246  A    between atoms: _595  and  _597
REMARK  247  A    between atoms: _597  and  _598
REMARK  248  A    between atoms: _597  and  _600
REMARK  249  A    between atoms: _603  and  _605
REMARK  250  A    between atoms: _605  and  _606
REMARK  251  A    between atoms: _605  and  _608
REMARK  252  A    between atoms: _608  and  _609
REMARK  253  A    between atoms: _614  and  _615
REMARK                            x       y       z     vdW  Elec       q    Type
REMARK                         _______ _______ _______ _____ _____    ______ ____
ROOT
ATOM      1  CG  LYS A   1       9.932  11.256  22.897  0.00  0.00    -0.000 C 
ENDROOT
BRANCH   1   2
ATOM      2  CB  LYS A   1       9.908  12.717  23.329  0.00  0.00    +0.025 C 
BRANCH   2   3
ATOM      3  CA  LYS A   1       8.699  13.541  22.864  0.00  0.00    +0.133 C 
BRANCH   3   4
ATOM      4  N   LYS A   1       8.834  14.919  23.351  0.00  0.00    -0.239 NA
ATOM      5  H   LYS A   1       9.713  15.190  23.837  0.00  0.00    +0.142 HD
ENDBRANCH   3   4
BRANCH   3   6
ATOM      6  C   LYS A   1       7.392  12.885  23.343  0.00  0.00    +0.224 C 
ATOM      7  O   LYS A   1       6.818  12.069  22.633  0.00  0.00    -0.287 OA
ENDBRANCH   3   6
ENDBRANCH   2   3
ENDBRANCH   1   2
BRANCH   1   8
ATOM      8  CD  LYS A   1      11.084  10.510  23.575  0.00  0.00    -0.024 C 
BRANCH   8   9
ATOM      9  CE  LYS A   1      11.508   9.263  22.800  0.00  0.00    -0.086 C 
BRANCH   9  10
ATOM     10  NZ  LYS A   1      10.401   8.292  22.649  0.00  0.00    +0.380 N 
ATOM     11  HZ1 LYS A   1      10.074   7.992  23.590  0.00  0.00    -0.089 HD
ATOM     12  HZ2 LYS A   1       9.616   8.740  22.135  0.00  0.00    -0.089 HD
ATOM     13  HZ3 LYS A   1      10.738   7.464  22.117  0.00  0.00    -0.089 HD
ENDBRANCH   9  10
ENDBRANCH   8   9
ENDBRANCH   1   8
TORSDOF 7
REMARK  Name = ../refined-set-2016/4dy6/4dy6_pocket.pdb
REMARK  253 active torsions:
REMARK  status: ('A' for Active; 'I' for Inactive)
REMARK    1  A    between atoms: _1  and  _3
REMARK    2  A    between atoms: _3  and  _4
REMARK    3  A    between atoms: _3  and  _6
REMARK    4  A    between atoms: _6  and  _7
REMARK    5  A    between atoms: _7  and  _8
REMARK    6  A    between atoms: _8  and  _9
REMARK    7  A    between atoms: _9  and  _10
REMARK    8  A    between atoms: _14  and  _16
REMARK    9  A    between atoms: _16  and  _17
REMARK   10  A    between atoms: _19  and  _21
REMARK   11  A    between atoms: _21  and  _22
REMARK   12  A    between atoms: _24  and  _26
REMARK   13  A    between atoms: _26  and  _27
REMARK   14  A    between atoms: _26  and  _29
REMARK   15  A    between atoms: _29  and  _30
REMARK   16  A    between atoms: _33  and  _35
REMARK   17  A    between atoms: _35  and  _36
REMARK   18  A    between atoms: _38  and  _40
REMARK   19  A    between atoms: _40  and  _41
REMARK   20  A    between atoms: _40  and  _43
REMARK   21  A    between atoms: _43  and  _44
REMARK   22  A    between atoms: _47  and  _49
REMARK   23  A    between atoms: _49  and  _50
REMARK   24  A    between atoms: _49  and  _52
REMARK   25  A    between atoms: _52  and  _53
REMARK   26  A    between atoms: _59  and  _61
REMARK   27  A    between atoms: _61  and  _62
REMARK   28  A    between atoms: _61  and  _64
REMARK   29  A    between atoms: _64  and  _65
REMARK   30  A    between atoms: _68  and  _70
REMARK   31  A    between atoms: _70  and  _71
REMARK   32  A    between atoms: _70  and  _73
REMARK   33  A    between atoms: _73  and  _74
REMARK   34  A    between atoms: _76  and  _78
REMARK   35  A    between atoms: _78  and  _79
REMARK   36  A    between atoms: _78  and  _81
REMARK   37  A    between atoms: _81  and  _82
REMARK   38  A    between atoms: _87  and  _89
REMARK   39  A    between atoms: _89  and  _90
REMARK   40  A    between atoms: _89  and  _92
REMARK   41  A    between atoms: _92  and  _93
REMARK   42  A    between atoms: _96  and  _98
REMARK   43  A    between atoms: _98  and  _99
REMARK   44  A    between atoms: _101  and  _103
REMARK   45  A    between atoms: _103  and  _104
REMARK   46  A    between atoms: _103  and  _106
REMARK   47  A    between atoms: _106  and  _107
REMARK   48  A    between atoms: _112  and  _114
REMARK   49  A    between atoms: _114  and  _115
REMARK   50  A    between atoms: _114  and  _117
REMARK   51  A    between atoms: _117  and  _118
REMARK   52  A    between atoms: _121  and  _123
REMARK   53  A    between atoms: _123  and  _124
REMARK   54  A    between atoms: _126  and  _128
REMARK   55  A    between atoms: _128  and  _129
REMARK   56  A    between atoms: _128  and  _131
REMARK   57  A    between atoms: _131  and  _132
REMARK   58  A    between atoms: _138  and  _140
REMARK   59  A    between atoms: _140  and  _141
REMARK   60  A    between atoms: _140  and  _143
REMARK   61  A    between atoms: _143  and  _144
REMARK   62  A    between atoms: _149  and  _150
REMARK   63  A    between atoms: _152  and  _154
REMARK   64  A    between atoms: _154  and  _155
REMARK   65  A    between atoms: _158  and  _160
REMARK   66  A    between atoms: _160  and  _161
REMARK   67  A    between atoms: _160  and  _163
REMARK   68  A    between atoms: _163  and  _164
REMARK   69  A    between atoms: _167  and  _169
REMARK   70  A    between atoms: _169  and  _170
REMARK   71  A    between atoms: _169  and  _172
REMARK   72  A    between atoms: _172  and  _173
REMARK   73  A    between atoms: _178  and  _180
REMARK   74  A    between atoms: _180  and  _181
REMARK   75  A    between atoms: _180  and  _183
REMARK   76  A    between atoms: _183  and  _184
REMARK   77  A    between atoms: _184  and  _185
REMARK   78  A    between atoms: _188  and  _190
REMARK   79  A    between atoms: _190  and  _191
REMARK   80  A    between atoms: _190  and  _193
REMARK   81  A    between atoms: _193  and  _194
REMARK   82  A    between atoms: _196  and  _198
REMARK   83  A    between atoms: _198  and  _199
REMARK   84  A    between atoms: _198  and  _201
REMARK   85  A    between atoms: _201  and  _202
REMARK   86  A    between atoms: _205  and  _207
REMARK   87  A    between atoms: _207  and  _208
REMARK   88  A    between atoms: _207  and  _210
REMARK   89  A    between atoms: _210  and  _211
REMARK   90  A    between atoms: _211  and  _212
REMARK   91  A    between atoms: _212  and  _213
REMARK   92  A    between atoms: _213  and  _214
REMARK   93  A    between atoms: _218  and  _220
REMARK   94  A    between atoms: _220  and  _221
REMARK   95  A    between atoms: _220  and  _223
REMARK   96  A    between atoms: _225  and  _227
REMARK   97  A    between atoms: _227  and  _228
REMARK   98  A    between atoms: _227  and  _230
REMARK   99  A    between atoms: _230  and  _231
REMARK  100  A    between atoms: _233  and  _235
REMARK  101  A    between atoms: _235  and  _236
REMARK  102  A    between atoms: _235  and  _238
REMARK  103  A    between atoms: _238  and  _239
REMARK  104  A    between atoms: _243  and  _244
REMARK  105  A    between atoms: _249  and  _251
REMARK  106  A    between atoms: _251  and  _252
REMARK  107  A    between atoms: _251  and  _254
REMARK  108  A    between atoms: _254  and  _255
REMARK  109  A    between atoms: _257  and  _259
REMARK  110  A    between atoms: _259  and  _260
REMARK  111  A    between atoms: _262  and  _264
REMARK  112  A    between atoms: _264  and  _265
REMARK  113  A    between atoms: _264  and  _267
REMARK  114  A    between atoms: _267  and  _268
REMARK  115  A    between atoms: _271  and  _273
REMARK  116  A    between atoms: _273  and  _274
REMARK  117  A    between atoms: _273  and  _276
REMARK  118  A    between atoms: _276  and  _277
REMARK  119  A    between atoms: _280  and  _282
REMARK  120  A    between atoms: _282  and  _283
REMARK  121  A    between atoms: _286  and  _288
REMARK  122  A    between atoms: _288  and  _289
REMARK  123  A    between atoms: _288  and  _291
REMARK  124  A    between atoms: _291  and  _292
REMARK  125  A    between atoms: _297  and  _298
REMARK  126  A    between atoms: _300  and  _302
REMARK  127  A    between atoms: _302  and  _303
REMARK  128  A    between atoms: _302  and  _305
REMARK  129  A    between atoms: _305  and  _306
REMARK  130  A    between atoms: _311  and  _313
REMARK  131  A    between atoms: _313  and  _314
REMARK  132  A    between atoms: _313  and  _316
REMARK  133  A    between atoms: _316  and  _317
REMARK  134  A    between atoms: _317  and  _318
REMARK  135  A    between atoms: _318  and  _319
REMARK  136  A    between atoms: _319  and  _320
REMARK  137  A    between atoms: _324  and  _326
REMARK  138  A    between atoms: _326  and  _327
REMARK  139  A    between atoms: _326  and  _329
REMARK  140  A    between atoms: _329  and  _330
REMARK  141  A    between atoms: _332  and  _334
REMARK  142  A    between atoms: _334  and  _335
REMARK  143  A    between atoms: _334  and  _337
REMARK  144  A    between atoms: _337  and  _338
REMARK  145  A    between atoms: _341  and  _343
REMARK  146  A    between atoms: _343  and  _344
REMARK  147  A    between atoms: _343  and  _346
REMARK  148  A    between atoms: _346  and  _347
REMARK  149  A    between atoms: _350  and  _352
REMARK  150  A    between atoms: _352  and  _353
REMARK  151  A    between atoms: _352  and  _355
REMARK  152  A    between atoms: _355  and  _356
REMARK  153  A    between atoms: _356  and  _357
REMARK  154  A    between atoms: _359  and  _361
REMARK  155  A    between atoms: _361  and  _362
REMARK  156  A    between atoms: _361  and  _364
REMARK  157  A    between atoms: _364  and  _365
REMARK  158  A    between atoms: _367  and  _369
REMARK  159  A    between atoms: _369  and  _370
REMARK  160  A    between atoms: _369  and  _372
REMARK  161  A    between atoms: _375  and  _377
REMARK  162  A    between atoms: _377  and  _378
REMARK  163  A    between atoms: _377  and  _380
REMARK  164  A    between atoms: _380  and  _381
REMARK  165  A    between atoms: _384  and  _386
REMARK  166  A    between atoms: _386  and  _387
REMARK  167  A    between atoms: _386  and  _389
REMARK  168  A    between atoms: _389  and  _390
REMARK  169  A    between atoms: _395  and  _397
REMARK  170  A    between atoms: _397  and  _398
REMARK  171  A    between atoms: _397  and  _400
REMARK  172  A    between atoms: _400  and  _401
REMARK  173  A    between atoms: _404  and  _406
REMARK  174  A    between atoms: _406  and  _407
REMARK  175  A    between atoms: _406  and  _409
REMARK  176  A    between atoms: _409  and  _410
REMARK  177  A    between atoms: _416  and  _418
REMARK  178  A    between atoms: _418  and  _419
REMARK  179  A    between atoms: _418  and  _421
REMARK  180  A    between atoms: _421  and  _422
REMARK  181  A    between atoms: _422  and  _423
REMARK  182  A    between atoms: _423  and  _424
REMARK  183  A    between atoms: _433  and  _435
REMARK  184  A    between atoms: _435  and  _436
REMARK  185  A    between atoms: _435  and  _438
REMARK  186  A    between atoms: _441  and  _443
REMARK  187  A    between atoms: _443  and  _444
REMARK  188  A    between atoms: _443  and  _446
REMARK  189  A    between atoms: _446  and  _447
REMARK  190  A    between atoms: _449  and  _451
REMARK  191  A    between atoms: _451  and  _452
REMARK  192  A    between atoms: _451  and  _454
REMARK  193  A    between atoms: _454  and  _455
REMARK  194  A    between atoms: _461  and  _463
REMARK  195  A    between atoms: _463  and  _464
REMARK  196  A    between atoms: _463  and  _466
REMARK  197  A    between atoms: _466  and  _467
REMARK  198  A    between atoms: _469  and  _471
REMARK  199  A    between atoms: _471  and  _472
REMARK  200  A    between atoms: _475  and  _476
REMARK  201  A    between atoms: _481  and  _483
REMARK  202  A    between atoms: _483  and  _484
REMARK  203  A    between atoms: _483  and  _486
REMARK  204  A    between atoms: _486  and  _487
REMARK  205  A    between atoms: _493  and  _495
REMARK  206  A    between atoms: _495  and  _496
REMARK  207  A    between atoms: _495  and  _498
REMARK  208  A    between atoms: _498  and  _499
REMARK  209  A    between atoms: _505  and  _507
REMARK  210  A    between atoms: _507  and  _508
REMARK  211  A    between atoms: _507  and  _510
REMARK  212  A    between atoms: _510  and  _511
REMARK  213  A    between atoms: _511  and  _512
REMARK  214  A    between atoms: _512  and  _513
REMARK  215  A    between atoms: _522  and  _524
REMARK  216  A    between atoms: _524  and  _525
REMARK  217  A    between atoms: _527  and  _529
REMARK  218  A    between atoms: _529  and  _530
REMARK  219  A    between atoms: _529  and  _532
REMARK  220  A    between atoms: _532  and  _533
REMARK  221  A    between atoms: _536  and  _538
REMARK  222  A    between atoms: _538  and  _539
REMARK  223  A    between atoms: _541  and  _543
REMARK  224  A    between atoms: _543  and  _544
REMARK  225  A    between atoms: _543  and  _546
REMARK  226  A    between atoms: _546  and  _547
REMARK  227  A    between atoms: _547  and  _548
REMARK  228  A    between atoms: _550  and  _552
REMARK  229  A    between atoms: _552  and  _553
REMARK  230  A    between atoms: _556  and  _558
REMARK  231  A    between atoms: _558  and  _559
REMARK  232  A    between atoms: _558  and  _561
REMARK  233  A    between atoms: _561  and  _562
REMARK  234  A    between atoms: _564  and  _566
REMARK  235  A    between atoms: _566  and  _567
REMARK  236  A    between atoms: _566  and  _569
REMARK  237  A    between atoms: _569  and  _570
REMARK  238  A    between atoms: _573  and  _575
REMARK  239  A    between atoms: _575  and  _576
REMARK  240  A    between atoms: _575  and  _578
REMARK  241  A    between atoms: _578  and  _579
REMARK  242  A    between atoms: _584  and  _586
REMARK  243  A    between atoms: _586  and  _587
REMARK  244  A    between atoms: _586  and  _589
REMARK  245  A    between atoms: _589  and  _590
REMARK  246  A    between atoms: _595  and  _597
REMARK  247  A    between atoms: _597  and  _598
REMARK  248  A    between atoms: _597  and  _600
REMARK  249  A    between atoms: _603  and  _605
REMARK  250  A    between atoms: _605  and  _606
REMARK  251  A    between atoms: _605  and  _608
REMARK  252  A    between atoms: _608  and  _609
REMARK  253  A    between atoms: _614  and  _615
REMARK                            x       y       z     vdW  Elec       q    Type
REMARK                         _______ _______ _______ _____ _____    ______ ____
ROOT
ATOM      1  CA  THR A   5      11.327  15.291  17.976  0.00  0.00    +0.176 C 
ENDROOT
BRANCH   1   2
ATOM      2  C   THR A   5      11.810  16.619  17.403  0.00  0.00    +0.243 C 
ATOM      3  N   PHE A   6      13.121  16.760  17.238  0.00  0.00    -0.297 N 
ATOM      4  H   PHE A   6      13.760  15.971  17.464  0.00  0.00    +0.150 HD
ATOM      5  O   THR A   5      11.007  17.498  17.076  0.00  0.00    -0.273 OA
BRANCH   3   6
ATOM      6  CA  PHE A   6      13.665  18.012  16.743  0.00  0.00    +0.153 C 
BRANCH   6   7
ATOM      7  C   PHE A   6      13.222  18.258  15.300  0.00  0.00    +0.241 C 
ATOM      8  O   PHE A   6      12.795  19.349  14.960  0.00  0.00    -0.273 OA
ATOM      9  N   LEU A   7      13.337  17.230  14.460  0.00  0.00    -0.297 N 
ATOM     10  H   LEU A   7      13.785  16.354  14.795  0.00  0.00    +0.150 HD
BRANCH   9  11
ATOM     11  CA  LEU A   7      12.850  17.295  13.073  0.00  0.00    +0.149 C 
BRANCH  11  12
ATOM     12  C   LEU A   7      11.371  17.731  12.972  0.00  0.00    +0.241 C 
ATOM     13  N   SER A   8      10.522  17.190  13.847  0.00  0.00    -0.296 N 
ATOM     14  H   SER A   8      10.870  16.467  14.509  0.00  0.00    +0.150 HD
ATOM     15  O   LEU A   7      11.014  18.542  12.105  0.00  0.00    -0.273 OA
BRANCH  13  16
ATOM     16  CA  SER A   8       9.117  17.586  13.900  0.00  0.00    +0.166 C 
BRANCH  16  17
ATOM     17  CB  SER A   8       8.955  19.060  14.304  0.00  0.00    +0.229 C 
ATOM     18  OG  SER A   8       8.124  19.774  13.745  0.00  0.00    -0.286 OA
ENDBRANCH  16  17
BRANCH  16  19
ATOM     19  C   SER A   8       8.327  16.700  14.882  0.00  0.00    +0.165 C 
BRANCH  19  20
ATOM     20  O   SER A   8       8.162  15.377  14.373  0.00  0.00    -0.380 OA
ATOM     21  H   SER A   8       9.051  14.968  14.226  0.00  0.00    +0.211 HD
ENDBRANCH  19  20
ENDBRANCH  16  19
ENDBRANCH  13  16
ENDBRANCH  11  12
BRANCH  11  22
ATOM     22  CB  LEU A   7      13.031  15.950  12.379  0.00  0.00    +0.029 C 
BRANCH  22  23
ATOM     23  CG  LEU A   7      14.241  15.657  11.468  0.00  0.00    +0.002 C 
ATOM     24  CD2 LEU A   7      15.244  14.699  12.106  0.00  0.00    +0.000 C 
ATOM     25  CD1 LEU A   7      14.953  16.945  10.974  0.00  0.00    +0.000 C 
ENDBRANCH  22  23
ENDBRANCH  11  22
ENDBRANCH   9  11
ENDBRANCH   6   7
BRANCH   6  26
ATOM     26  CB  PHE A   6      15.191  18.047  16.853  0.00  0.00    +0.055 C 
BRANCH  26  27
ATOM     27  CG  PHE A   6      15.779  19.381  16.473  0.00  0.00    -0.020 A 
ATOM     28  CD2 PHE A   6      16.027  20.333  17.434  0.00  0.00    -0.004 A 
ATOM     29  CE2 PHE A   6      16.543  21.570  17.095  0.00  0.00    -0.000 A 
ATOM     30  CZ  PHE A   6      16.805  21.868  15.776  0.00  0.00    -0.000 A 
ATOM     31  CE1 PHE A   6      16.547  20.925  14.800  0.00  0.00    -0.000 A 
ATOM     32  CD1 PHE A   6      16.043  19.690  15.145  0.00  0.00    -0.004 A 
ENDBRANCH  26  27
ENDBRANCH   6  26
ENDBRANCH   3   6
ENDBRANCH   1   2
BRANCH   1  34
ATOM     33  C   GLY A   4      12.057  13.966  16.033  0.00  0.00    +0.243 C 
ATOM     34  N   THR A   5      12.092  14.189  17.351  0.00  0.00    -0.295 N 
ATOM     35  H   THR A   5      12.673  13.571  17.953  0.00  0.00    +0.150 HD
ATOM     36  O   GLY A   4      11.316  14.604  15.265  0.00  0.00    -0.273 OA
BRANCH  33  37
ATOM     37  CA  GLY A   4      12.986  12.869  15.489  0.00  0.00    +0.176 C 
BRANCH  37  39
ATOM     38  C   ASP A   3      15.107  14.017  15.922  0.00  0.00    +0.241 C 
ATOM     39  N   GLY A   4      14.334  12.939  16.068  0.00  0.00    -0.295 N 
ATOM     40  H   GLY A   4      14.696  12.126  16.606  0.00  0.00    +0.150 HD
ATOM     41  O   ASP A   3      14.798  14.956  15.199  0.00  0.00    -0.273 OA
BRANCH  38  42
ATOM     42  CA  ASP A   3      16.429  14.061  16.703  0.00  0.00    +0.160 C 
BRANCH  42  45
ATOM     43  C   GLY A   2      15.615  13.883  18.976  0.00  0.00    +0.243 C 
ATOM     44  O   GLY A   2      15.038  14.968  18.889  0.00  0.00    -0.273 OA
ATOM     45  N   ASP A   3      16.345  13.381  17.989  0.00  0.00    -0.296 N 
ATOM     46  H   ASP A   3      16.864  12.491  18.135  0.00  0.00    +0.150 HD
BRANCH  43  47
ATOM     47  CA  GLY A   2      15.545  13.038  20.235  0.00  0.00    +0.176 C 
BRANCH  47  50
ATOM     48  C   GLY A   1      14.691  13.800  22.381  0.00  0.00    +0.240 C 
ATOM     49  O   GLY A   1      15.803  13.757  22.894  0.00  0.00    -0.274 OA
ATOM     50  N   GLY A   2      14.471  13.467  21.115  0.00  0.00    -0.295 N 
ATOM     51  H   GLY A   2      13.501  13.515  20.742  0.00  0.00    +0.150 HD
BRANCH  48  52
ATOM     52  CA  GLY A   1      13.481  14.236  23.193  0.00  0.00    +0.169 C 
BRANCH  52  53
ATOM     53  N   GLY A   1      13.627  15.608  23.687  0.00  0.00    -0.236 NA
ATOM     54  H   GLY A   1      14.575  15.953  23.940  0.00  0.00    +0.142 HD
ENDBRANCH  52  53
ENDBRANCH  48  52
ENDBRANCH  47  50
ENDBRANCH  43  47
ENDBRANCH  42  45
BRANCH  42  55
ATOM     55  CB  ASP A   3      17.621  13.521  15.887  0.00  0.00    +0.143 C 
BRANCH  55  56
ATOM     56  CG  ASP A   3      18.947  14.094  16.359  0.00  0.00    +0.367 C 
ATOM     57  OD2 ASP A   3      18.946  15.166  17.020  0.00  0.00    -0.246 OA
ATOM     58  OD1 ASP A   3      19.995  13.488  16.069  0.00  0.00    -0.246 OA
ENDBRANCH  55  56
ENDBRANCH  42  55
ENDBRANCH  38  42
ENDBRANCH  37  39
ENDBRANCH  33  37
ENDBRANCH   1  34
BRANCH   1  59
ATOM     59  CB  THR A   5      11.450  15.298  19.520  0.00  0.00    +0.137 C 
ATOM     60  CG2 THR A   5      10.437  16.265  20.173  0.00  0.00    +0.034 C 
BRANCH  59  61
ATOM     61  OG1 THR A   5      11.205  13.983  20.036  0.00  0.00    -0.382 OA
ATOM     62  HG1 THR A   5      11.868  13.353  19.658  0.00  0.00    +0.210 HD
ENDBRANCH  59  61
ENDBRANCH   1  59
TORSDOF 26
REMARK  Name = ../refined-set-2016/4dy6/4dy6_pocket.pdb
REMARK  253 active torsions:
REMARK  status: ('A' for Active; 'I' for Inactive)
REMARK    1  A    between atoms: _1  and  _3
REMARK    2  A    between atoms: _3  and  _4
REMARK    3  A    between atoms: _3  and  _6
REMARK    4  A    between atoms: _6  and  _7
REMARK    5  A    between atoms: _7  and  _8
REMARK    6  A    between atoms: _8  and  _9
REMARK    7  A    between atoms: _9  and  _10
REMARK    8  A    between atoms: _14  and  _16
REMARK    9  A    between atoms: _16  and  _17
REMARK   10  A    between atoms: _19  and  _21
REMARK   11  A    between atoms: _21  and  _22
REMARK   12  A    between atoms: _24  and  _26
REMARK   13  A    between atoms: _26  and  _27
REMARK   14  A    between atoms: _26  and  _29
REMARK   15  A    between atoms: _29  and  _30
REMARK   16  A    between atoms: _33  and  _35
REMARK   17  A    between atoms: _35  and  _36
REMARK   18  A    between atoms: _38  and  _40
REMARK   19  A    between atoms: _40  and  _41
REMARK   20  A    between atoms: _40  and  _43
REMARK   21  A    between atoms: _43  and  _44
REMARK   22  A    between atoms: _47  and  _49
REMARK   23  A    between atoms: _49  and  _50
REMARK   24  A    between atoms: _49  and  _52
REMARK   25  A    between atoms: _52  and  _53
REMARK   26  A    between atoms: _59  and  _61
REMARK   27  A    between atoms: _61  and  _62
REMARK   28  A    between atoms: _61  and  _64
REMARK   29  A    between atoms: _64  and  _65
REMARK   30  A    between atoms: _68  and  _70
REMARK   31  A    between atoms: _70  and  _71
REMARK   32  A    between atoms: _70  and  _73
REMARK   33  A    between atoms: _73  and  _74
REMARK   34  A    between atoms: _76  and  _78
REMARK   35  A    between atoms: _78  and  _79
REMARK   36  A    between atoms: _78  and  _81
REMARK   37  A    between atoms: _81  and  _82
REMARK   38  A    between atoms: _87  and  _89
REMARK   39  A    between atoms: _89  and  _90
REMARK   40  A    between atoms: _89  and  _92
REMARK   41  A    between atoms: _92  and  _93
REMARK   42  A    between atoms: _96  and  _98
REMARK   43  A    between atoms: _98  and  _99
REMARK   44  A    between atoms: _101  and  _103
REMARK   45  A    between atoms: _103  and  _104
REMARK   46  A    between atoms: _103  and  _106
REMARK   47  A    between atoms: _106  and  _107
REMARK   48  A    between atoms: _112  and  _114
REMARK   49  A    between atoms: _114  and  _115
REMARK   50  A    between atoms: _114  and  _117
REMARK   51  A    between atoms: _117  and  _118
REMARK   52  A    between atoms: _121  and  _123
REMARK   53  A    between atoms: _123  and  _124
REMARK   54  A    between atoms: _126  and  _128
REMARK   55  A    between atoms: _128  and  _129
REMARK   56  A    between atoms: _128  and  _131
REMARK   57  A    between atoms: _131  and  _132
REMARK   58  A    between atoms: _138  and  _140
REMARK   59  A    between atoms: _140  and  _141
REMARK   60  A    between atoms: _140  and  _143
REMARK   61  A    between atoms: _143  and  _144
REMARK   62  A    between atoms: _149  and  _150
REMARK   63  A    between atoms: _152  and  _154
REMARK   64  A    between atoms: _154  and  _155
REMARK   65  A    between atoms: _158  and  _160
REMARK   66  A    between atoms: _160  and  _161
REMARK   67  A    between atoms: _160  and  _163
REMARK   68  A    between atoms: _163  and  _164
REMARK   69  A    between atoms: _167  and  _169
REMARK   70  A    between atoms: _169  and  _170
REMARK   71  A    between atoms: _169  and  _172
REMARK   72  A    between atoms: _172  and  _173
REMARK   73  A    between atoms: _178  and  _180
REMARK   74  A    between atoms: _180  and  _181
REMARK   75  A    between atoms: _180  and  _183
REMARK   76  A    between atoms: _183  and  _184
REMARK   77  A    between atoms: _184  and  _185
REMARK   78  A    between atoms: _188  and  _190
REMARK   79  A    between atoms: _190  and  _191
REMARK   80  A    between atoms: _190  and  _193
REMARK   81  A    between atoms: _193  and  _194
REMARK   82  A    between atoms: _196  and  _198
REMARK   83  A    between atoms: _198  and  _199
REMARK   84  A    between atoms: _198  and  _201
REMARK   85  A    between atoms: _201  and  _202
REMARK   86  A    between atoms: _205  and  _207
REMARK   87  A    between atoms: _207  and  _208
REMARK   88  A    between atoms: _207  and  _210
REMARK   89  A    between atoms: _210  and  _211
REMARK   90  A    between atoms: _211  and  _212
REMARK   91  A    between atoms: _212  and  _213
REMARK   92  A    between atoms: _213  and  _214
REMARK   93  A    between atoms: _218  and  _220
REMARK   94  A    between atoms: _220  and  _221
REMARK   95  A    between atoms: _220  and  _223
REMARK   96  A    between atoms: _225  and  _227
REMARK   97  A    between atoms: _227  and  _228
REMARK   98  A    between atoms: _227  and  _230
REMARK   99  A    between atoms: _230  and  _231
REMARK  100  A    between atoms: _233  and  _235
REMARK  101  A    between atoms: _235  and  _236
REMARK  102  A    between atoms: _235  and  _238
REMARK  103  A    between atoms: _238  and  _239
REMARK  104  A    between atoms: _243  and  _244
REMARK  105  A    between atoms: _249  and  _251
REMARK  106  A    between atoms: _251  and  _252
REMARK  107  A    between atoms: _251  and  _254
REMARK  108  A    between atoms: _254  and  _255
REMARK  109  A    between atoms: _257  and  _259
REMARK  110  A    between atoms: _259  and  _260
REMARK  111  A    between atoms: _262  and  _264
REMARK  112  A    between atoms: _264  and  _265
REMARK  113  A    between atoms: _264  and  _267
REMARK  114  A    between atoms: _267  and  _268
REMARK  115  A    between atoms: _271  and  _273
REMARK  116  A    between atoms: _273  and  _274
REMARK  117  A    between atoms: _273  and  _276
REMARK  118  A    between atoms: _276  and  _277
REMARK  119  A    between atoms: _280  and  _282
REMARK  120  A    between atoms: _282  and  _283
REMARK  121  A    between atoms: _286  and  _288
REMARK  122  A    between atoms: _288  and  _289
REMARK  123  A    between atoms: _288  and  _291
REMARK  124  A    between atoms: _291  and  _292
REMARK  125  A    between atoms: _297  and  _298
REMARK  126  A    between atoms: _300  and  _302
REMARK  127  A    between atoms: _302  and  _303
REMARK  128  A    between atoms: _302  and  _305
REMARK  129  A    between atoms: _305  and  _306
REMARK  130  A    between atoms: _311  and  _313
REMARK  131  A    between atoms: _313  and  _314
REMARK  132  A    between atoms: _313  and  _316
REMARK  133  A    between atoms: _316  and  _317
REMARK  134  A    between atoms: _317  and  _318
REMARK  135  A    between atoms: _318  and  _319
REMARK  136  A    between atoms: _319  and  _320
REMARK  137  A    between atoms: _324  and  _326
REMARK  138  A    between atoms: _326  and  _327
REMARK  139  A    between atoms: _326  and  _329
REMARK  140  A    between atoms: _329  and  _330
REMARK  141  A    between atoms: _332  and  _334
REMARK  142  A    between atoms: _334  and  _335
REMARK  143  A    between atoms: _334  and  _337
REMARK  144  A    between atoms: _337  and  _338
REMARK  145  A    between atoms: _341  and  _343
REMARK  146  A    between atoms: _343  and  _344
REMARK  147  A    between atoms: _343  and  _346
REMARK  148  A    between atoms: _346  and  _347
REMARK  149  A    between atoms: _350  and  _352
REMARK  150  A    between atoms: _352  and  _353
REMARK  151  A    between atoms: _352  and  _355
REMARK  152  A    between atoms: _355  and  _356
REMARK  153  A    between atoms: _356  and  _357
REMARK  154  A    between atoms: _359  and  _361
REMARK  155  A    between atoms: _361  and  _362
REMARK  156  A    between atoms: _361  and  _364
REMARK  157  A    between atoms: _364  and  _365
REMARK  158  A    between atoms: _367  and  _369
REMARK  159  A    between atoms: _369  and  _370
REMARK  160  A    between atoms: _369  and  _372
REMARK  161  A    between atoms: _375  and  _377
REMARK  162  A    between atoms: _377  and  _378
REMARK  163  A    between atoms: _377  and  _380
REMARK  164  A    between atoms: _380  and  _381
REMARK  165  A    between atoms: _384  and  _386
REMARK  166  A    between atoms: _386  and  _387
REMARK  167  A    between atoms: _386  and  _389
REMARK  168  A    between atoms: _389  and  _390
REMARK  169  A    between atoms: _395  and  _397
REMARK  170  A    between atoms: _397  and  _398
REMARK  171  A    between atoms: _397  and  _400
REMARK  172  A    between atoms: _400  and  _401
REMARK  173  A    between atoms: _404  and  _406
REMARK  174  A    between atoms: _406  and  _407
REMARK  175  A    between atoms: _406  and  _409
REMARK  176  A    between atoms: _409  and  _410
REMARK  177  A    between atoms: _416  and  _418
REMARK  178  A    between atoms: _418  and  _419
REMARK  179  A    between atoms: _418  and  _421
REMARK  180  A    between atoms: _421  and  _422
REMARK  181  A    between atoms: _422  and  _423
REMARK  182  A    between atoms: _423  and  _424
REMARK  183  A    between atoms: _433  and  _435
REMARK  184  A    between atoms: _435  and  _436
REMARK  185  A    between atoms: _435  and  _438
REMARK  186  A    between atoms: _441  and  _443
REMARK  187  A    between atoms: _443  and  _444
REMARK  188  A    between atoms: _443  and  _446
REMARK  189  A    between atoms: _446  and  _447
REMARK  190  A    between atoms: _449  and  _451
REMARK  191  A    between atoms: _451  and  _452
REMARK  192  A    between atoms: _451  and  _454
REMARK  193  A    between atoms: _454  and  _455
REMARK  194  A    between atoms: _461  and  _463
REMARK  195  A    between atoms: _463  and  _464
REMARK  196  A    between atoms: _463  and  _466
REMARK  197  A    between atoms: _466  and  _467
REMARK  198  A    between atoms: _469  and  _471
REMARK  199  A    between atoms: _471  and  _472
REMARK  200  A    between atoms: _475  and  _476
REMARK  201  A    between atoms: _481  and  _483
REMARK  202  A    between atoms: _483  and  _484
REMARK  203  A    between atoms: _483  and  _486
REMARK  204  A    between atoms: _486  and  _487
REMARK  205  A    between atoms: _493  and  _495
REMARK  206  A    between atoms: _495  and  _496
REMARK  207  A    between atoms: _495  and  _498
REMARK  208  A    between atoms: _498  and  _499
REMARK  209  A    between atoms: _505  and  _507
REMARK  210  A    between atoms: _507  and  _508
REMARK  211  A    between atoms: _507  and  _510
REMARK  212  A    between atoms: _510  and  _511
REMARK  213  A    between atoms: _511  and  _512
REMARK  214  A    between atoms: _512  and  _513
REMARK  215  A    between atoms: _522  and  _524
REMARK  216  A    between atoms: _524  and  _525
REMARK  217  A    between atoms: _527  and  _529
REMARK  218  A    between atoms: _529  and  _530
REMARK  219  A    between atoms: _529  and  _532
REMARK  220  A    between atoms: _532  and  _533
REMARK  221  A    between atoms: _536  and  _538
REMARK  222  A    between atoms: _538  and  _539
REMARK  223  A    between atoms: _541  and  _543
REMARK  224  A    between atoms: _543  and  _544
REMARK  225  A    between atoms: _543  and  _546
REMARK  226  A    between atoms: _546  and  _547
REMARK  227  A    between atoms: _547  and  _548
REMARK  228  A    between atoms: _550  and  _552
REMARK  229  A    between atoms: _552  and  _553
REMARK  230  A    between atoms: _556  and  _558
REMARK  231  A    between atoms: _558  and  _559
REMARK  232  A    between atoms: _558  and  _561
REMARK  233  A    between atoms: _561  and  _562
REMARK  234  A    between atoms: _564  and  _566
REMARK  235  A    between atoms: _566  and  _567
REMARK  236  A    between atoms: _566  and  _569
REMARK  237  A    between atoms: _569  and  _570
REMARK  238  A    between atoms: _573  and  _575
REMARK  239  A    between atoms: _575  and  _576
REMARK  240  A    between atoms: _575  and  _578
REMARK  241  A    between atoms: _578  and  _579
REMARK  242  A    between atoms: _584  and  _586
REMARK  243  A    between atoms: _586  and  _587
REMARK  244  A    between atoms: _586  and  _589
REMARK  245  A    between atoms: _589  and  _590
REMARK  246  A    between atoms: _595  and  _597
REMARK  247  A    between atoms: _597  and  _598
REMARK  248  A    between atoms: _597  and  _600
REMARK  249  A    between atoms: _603  and  _605
REMARK  250  A    between atoms: _605  and  _606
REMARK  251  A    between atoms: _605  and  _608
REMARK  252  A    between atoms: _608  and  _609
REMARK  253  A    between atoms: _614  and  _615
REMARK                            x       y       z     vdW  Elec       q    Type
REMARK                         _______ _______ _______ _____ _____    ______ ____
ROOT
ATOM      1  CA  LEU A   5      23.200  12.244  22.404  0.00  0.00    +0.149 C 
ENDROOT
BRANCH   1   2
ATOM      2  C   LEU A   5      22.669  12.346  20.962  0.00  0.00    +0.241 C 
ATOM      3  N   GLY A   6      22.210  13.547  20.597  0.00  0.00    -0.295 N 
ATOM      4  H   GLY A   6      22.259  14.326  21.285  0.00  0.00    +0.150 HD
ATOM      5  O   LEU A   5      22.675  11.362  20.216  0.00  0.00    -0.273 OA
BRANCH   3   6
ATOM      6  CA  GLY A   6      21.644  13.818  19.281  0.00  0.00    +0.176 C 
BRANCH   6   7
ATOM      7  C   GLY A   6      22.529  14.751  18.472  0.00  0.00    +0.243 C 
ATOM      8  O   GLY A   6      23.443  15.390  19.007  0.00  0.00    -0.273 OA
ATOM      9  N   PHE A   7      22.276  14.830  17.180  0.00  0.00    -0.297 N 
ATOM     10  H   PHE A   7      21.562  14.210  16.747  0.00  0.00    +0.150 HD
BRANCH   9  11
ATOM     11  CA  PHE A   7      22.997  15.783  16.372  0.00  0.00    +0.153 C 
BRANCH  11  12
ATOM     12  C   PHE A   7      22.341  17.127  16.424  0.00  0.00    +0.241 C 
ATOM     13  N   TYR A   8      21.026  17.131  16.523  0.00  0.00    -0.297 N 
ATOM     14  H   TYR A   8      20.491  16.241  16.468  0.00  0.00    +0.150 HD
ATOM     15  O   PHE A   7      23.010  18.155  16.361  0.00  0.00    -0.273 OA
BRANCH  13  16
ATOM     16  CA  TYR A   8      20.344  18.378  16.707  0.00  0.00    +0.153 C 
BRANCH  16  17
ATOM     17  C   TYR A   8      20.136  18.636  18.192  0.00  0.00    +0.241 C 
ATOM     18  N   ALA A   9      19.738  17.654  18.976  0.00  0.00    -0.298 N 
ATOM     19  H   ALA A   9      19.611  16.700  18.581  0.00  0.00    +0.150 HD
ATOM     20  O   TYR A   8      20.360  19.745  18.643  0.00  0.00    -0.273 OA
BRANCH  18  21
ATOM     21  CA  ALA A   9      19.472  17.889  20.397  0.00  0.00    +0.137 C 
ATOM     22  CB  ALA A   9      18.424  16.915  20.898  0.00  0.00    +0.030 C 
BRANCH  21  23
ATOM     23  C   ALA A   9      20.741  17.758  21.219  0.00  0.00    +0.227 C 
ATOM     24  O   ALA A   9      21.079  16.654  21.623  0.00  0.00    -0.286 OA
ENDBRANCH  21  23
ENDBRANCH  18  21
ENDBRANCH  16  17
BRANCH  16  25
ATOM     25  CB  TYR A   8      19.068  18.404  15.898  0.00  0.00    +0.055 C 
BRANCH  25  26
ATOM     26  CG  TYR A   8      19.340  18.184  14.434  0.00  0.00    -0.020 A 
ATOM     27  CD2 TYR A   8      18.749  17.148  13.746  0.00  0.00    -0.001 A 
ATOM     28  CE2 TYR A   8      19.004  16.945  12.400  0.00  0.00    +0.036 A 
ATOM     29  CZ  TYR A   8      19.866  17.788  11.723  0.00  0.00    +0.134 A 
ATOM     30  CE1 TYR A   8      20.478  18.819  12.393  0.00  0.00    +0.036 A 
ATOM     31  CD1 TYR A   8      20.207  19.018  13.737  0.00  0.00    -0.001 A 
BRANCH  29  32
ATOM     32  OH  TYR A   8      20.134  17.595  10.388  0.00  0.00    -0.506 OA
ATOM     33  HH  TYR A   8      20.767  18.289  10.076  0.00  0.00    +0.292 HD
ENDBRANCH  29  32
ENDBRANCH  25  26
ENDBRANCH  16  25
ENDBRANCH  13  16
ENDBRANCH  11  12
BRANCH  11  34
ATOM     34  CB  PHE A   7      23.150  15.299  14.931  0.00  0.00    +0.055 C 
BRANCH  34  35
ATOM     35  CG  PHE A   7      24.401  14.579  14.729  0.00  0.00    -0.020 A 
ATOM     36  CD2 PHE A   7      24.470  13.225  14.968  0.00  0.00    -0.004 A 
ATOM     37  CE2 PHE A   7      25.661  12.548  14.832  0.00  0.00    -0.000 A 
ATOM     38  CZ  PHE A   7      26.797  13.242  14.485  0.00  0.00    -0.000 A 
ATOM     39  CE1 PHE A   7      26.739  14.615  14.279  0.00  0.00    -0.000 A 
ATOM     40  CD1 PHE A   7      25.549  15.270  14.420  0.00  0.00    -0.004 A 
ENDBRANCH  34  35
ENDBRANCH  11  34
ENDBRANCH   9  11
ENDBRANCH   6   7
ENDBRANCH   3   6
ENDBRANCH   1   2
BRANCH   1  42
ATOM     41  C   HIS A   4      21.561  10.618  23.237  0.00  0.00    +0.241 C 
ATOM     42  N   LEU A   5      22.826  10.982  23.046  0.00  0.00    -0.297 N 
ATOM     43  H   LEU A   5      23.582  10.343  23.366  0.00  0.00    +0.150 HD
ATOM     44  O   HIS A   4      20.599  11.284  22.859  0.00  0.00    -0.273 OA
BRANCH  41  45
ATOM     45  CA  HIS A   4      21.352   9.296  23.974  0.00  0.00    +0.155 C 
BRANCH  45  48
ATOM     46  C   GLY A   3      19.484  10.032  25.386  0.00  0.00    +0.243 C 
ATOM     47  O   GLY A   3      20.131  10.970  25.863  0.00  0.00    -0.273 OA
ATOM     48  N   HIS A   4      19.983   9.183  24.492  0.00  0.00    -0.297 N 
ATOM     49  H   HIS A   4      19.380   8.409  24.147  0.00  0.00    +0.150 HD
BRANCH  46  50
ATOM     50  CA  GLY A   3      18.039   9.794  25.793  0.00  0.00    +0.176 C 
BRANCH  50  53
ATOM     51  C   THR A   2      17.115  11.649  27.094  0.00  0.00    +0.243 C 
ATOM     52  O   THR A   2      17.392  11.106  28.170  0.00  0.00    -0.273 OA
ATOM     53  N   GLY A   3      17.310  11.060  25.915  0.00  0.00    -0.295 N 
ATOM     54  H   GLY A   3      16.934  11.511  25.057  0.00  0.00    +0.150 HD
BRANCH  51  55
ATOM     55  CA  THR A   2      16.532  13.073  27.069  0.00  0.00    +0.176 C 
BRANCH  55  58
ATOM     56  C   HIS A   1      18.063  14.327  25.664  0.00  0.00    +0.239 C 
ATOM     57  O   HIS A   1      18.954  14.260  26.500  0.00  0.00    -0.274 OA
ATOM     58  N   THR A   2      16.869  13.787  25.841  0.00  0.00    -0.295 N 
ATOM     59  H   THR A   2      16.155  13.873  25.090  0.00  0.00    +0.150 HD
BRANCH  56  60
ATOM     60  CA  HIS A   1      18.281  15.041  24.334  0.00  0.00    +0.151 C 
BRANCH  60  61
ATOM     61  N   HIS A   1      18.411  16.479  24.514  0.00  0.00    -0.238 NA
ATOM     62  H   HIS A   1      19.325  16.881  24.806  0.00  0.00    +0.142 HD
ENDBRANCH  60  61
BRANCH  60  63
ATOM     63  CB  HIS A   1      19.486  14.456  23.599  0.00  0.00    +0.074 C 
BRANCH  63  64
ATOM     64  CG  HIS A   1      20.777  14.597  24.337  0.00  0.00    +0.082 A 
ATOM     65  ND1 HIS A   1      21.296  13.590  25.118  0.00  0.00    -0.227 NA
ATOM     66  CE1 HIS A   1      22.440  13.991  25.644  0.00  0.00    +0.199 A 
ATOM     67  NE2 HIS A   1      22.681  15.221  25.229  0.00  0.00    -0.221 NA
ATOM     68  CD2 HIS A   1      21.656  15.622  24.411  0.00  0.00    +0.115 A 
ENDBRANCH  63  64
ENDBRANCH  60  63
ENDBRANCH  56  60
ENDBRANCH  55  58
BRANCH  55  69
ATOM     69  CB  THR A   2      15.000  13.081  27.328  0.00  0.00    +0.137 C 
ATOM     70  CG2 THR A   2      14.536  14.503  27.524  0.00  0.00    +0.034 C 
BRANCH  69  71
ATOM     71  OG1 THR A   2      14.302  12.507  26.220  0.00  0.00    -0.382 OA
ATOM     72  HG1 THR A   2      13.329  12.520  26.402  0.00  0.00    +0.210 HD
ENDBRANCH  69  71
ENDBRANCH  55  69
ENDBRANCH  51  55
ENDBRANCH  50  53
ENDBRANCH  46  50
ENDBRANCH  45  48
BRANCH  45  73
ATOM     73  CB  HIS A   4      21.665   8.132  23.028  0.00  0.00    +0.076 C 
BRANCH  73  74
ATOM     74  CG  HIS A   4      20.949   8.220  21.717  0.00  0.00    +0.082 A 
ATOM     75  CD2 HIS A   4      19.650   8.018  21.395  0.00  0.00    +0.115 A 
ATOM     76  NE2 HIS A   4      19.524   8.252  20.047  0.00  0.00    -0.221 NA
ATOM     77  CE1 HIS A   4      20.704   8.589  19.558  0.00  0.00    +0.199 A 
ATOM     78  ND1 HIS A   4      21.581   8.582  20.546  0.00  0.00    -0.227 NA
ENDBRANCH  73  74
ENDBRANCH  45  73
ENDBRANCH  41  45
ENDBRANCH   1  42
BRANCH   1  79
ATOM     79  CB  LEU A   5      24.727  12.409  22.425  0.00  0.00    +0.029 C 
BRANCH  79  80
ATOM     80  CG  LEU A   5      25.349  13.485  21.525  0.00  0.00    +0.002 C 
ATOM     81  CD2 LEU A   5      24.827  14.868  21.889  0.00  0.00    +0.000 C 
ATOM     82  CD1 LEU A   5      26.862  13.446  21.604  0.00  0.00    +0.000 C 
ENDBRANCH  79  80
ENDBRANCH   1  79
TORSDOF 31
REMARK  Name = ../refined-set-2016/4dy6/4dy6_pocket.pdb
REMARK  253 active torsions:
REMARK  status: ('A' for Active; 'I' for Inactive)
REMARK    1  A    between atoms: _1  and  _3
REMARK    2  A    between atoms: _3  and  _4
REMARK    3  A    between atoms: _3  and  _6
REMARK    4  A    between atoms: _6  and  _7
REMARK    5  A    between atoms: _7  and  _8
REMARK    6  A    between atoms: _8  and  _9
REMARK    7  A    between atoms: _9  and  _10
REMARK    8  A    between atoms: _14  and  _16
REMARK    9  A    between atoms: _16  and  _17
REMARK   10  A    between atoms: _19  and  _21
REMARK   11  A    between atoms: _21  and  _22
REMARK   12  A    between atoms: _24  and  _26
REMARK   13  A    between atoms: _26  and  _27
REMARK   14  A    between atoms: _26  and  _29
REMARK   15  A    between atoms: _29  and  _30
REMARK   16  A    between atoms: _33  and  _35
REMARK   17  A    between atoms: _35  and  _36
REMARK   18  A    between atoms: _38  and  _40
REMARK   19  A    between atoms: _40  and  _41
REMARK   20  A    between atoms: _40  and  _43
REMARK   21  A    between atoms: _43  and  _44
REMARK   22  A    between atoms: _47  and  _49
REMARK   23  A    between atoms: _49  and  _50
REMARK   24  A    between atoms: _49  and  _52
REMARK   25  A    between atoms: _52  and  _53
REMARK   26  A    between atoms: _59  and  _61
REMARK   27  A    between atoms: _61  and  _62
REMARK   28  A    between atoms: _61  and  _64
REMARK   29  A    between atoms: _64  and  _65
REMARK   30  A    between atoms: _68  and  _70
REMARK   31  A    between atoms: _70  and  _71
REMARK   32  A    between atoms: _70  and  _73
REMARK   33  A    between atoms: _73  and  _74
REMARK   34  A    between atoms: _76  and  _78
REMARK   35  A    between atoms: _78  and  _79
REMARK   36  A    between atoms: _78  and  _81
REMARK   37  A    between atoms: _81  and  _82
REMARK   38  A    between atoms: _87  and  _89
REMARK   39  A    between atoms: _89  and  _90
REMARK   40  A    between atoms: _89  and  _92
REMARK   41  A    between atoms: _92  and  _93
REMARK   42  A    between atoms: _96  and  _98
REMARK   43  A    between atoms: _98  and  _99
REMARK   44  A    between atoms: _101  and  _103
REMARK   45  A    between atoms: _103  and  _104
REMARK   46  A    between atoms: _103  and  _106
REMARK   47  A    between atoms: _106  and  _107
REMARK   48  A    between atoms: _112  and  _114
REMARK   49  A    between atoms: _114  and  _115
REMARK   50  A    between atoms: _114  and  _117
REMARK   51  A    between atoms: _117  and  _118
REMARK   52  A    between atoms: _121  and  _123
REMARK   53  A    between atoms: _123  and  _124
REMARK   54  A    between atoms: _126  and  _128
REMARK   55  A    between atoms: _128  and  _129
REMARK   56  A    between atoms: _128  and  _131
REMARK   57  A    between atoms: _131  and  _132
REMARK   58  A    between atoms: _138  and  _140
REMARK   59  A    between atoms: _140  and  _141
REMARK   60  A    between atoms: _140  and  _143
REMARK   61  A    between atoms: _143  and  _144
REMARK   62  A    between atoms: _149  and  _150
REMARK   63  A    between atoms: _152  and  _154
REMARK   64  A    between atoms: _154  and  _155
REMARK   65  A    between atoms: _158  and  _160
REMARK   66  A    between atoms: _160  and  _161
REMARK   67  A    between atoms: _160  and  _163
REMARK   68  A    between atoms: _163  and  _164
REMARK   69  A    between atoms: _167  and  _169
REMARK   70  A    between atoms: _169  and  _170
REMARK   71  A    between atoms: _169  and  _172
REMARK   72  A    between atoms: _172  and  _173
REMARK   73  A    between atoms: _178  and  _180
REMARK   74  A    between atoms: _180  and  _181
REMARK   75  A    between atoms: _180  and  _183
REMARK   76  A    between atoms: _183  and  _184
REMARK   77  A    between atoms: _184  and  _185
REMARK   78  A    between atoms: _188  and  _190
REMARK   79  A    between atoms: _190  and  _191
REMARK   80  A    between atoms: _190  and  _193
REMARK   81  A    between atoms: _193  and  _194
REMARK   82  A    between atoms: _196  and  _198
REMARK   83  A    between atoms: _198  and  _199
REMARK   84  A    between atoms: _198  and  _201
REMARK   85  A    between atoms: _201  and  _202
REMARK   86  A    between atoms: _205  and  _207
REMARK   87  A    between atoms: _207  and  _208
REMARK   88  A    between atoms: _207  and  _210
REMARK   89  A    between atoms: _210  and  _211
REMARK   90  A    between atoms: _211  and  _212
REMARK   91  A    between atoms: _212  and  _213
REMARK   92  A    between atoms: _213  and  _214
REMARK   93  A    between atoms: _218  and  _220
REMARK   94  A    between atoms: _220  and  _221
REMARK   95  A    between atoms: _220  and  _223
REMARK   96  A    between atoms: _225  and  _227
REMARK   97  A    between atoms: _227  and  _228
REMARK   98  A    between atoms: _227  and  _230
REMARK   99  A    between atoms: _230  and  _231
REMARK  100  A    between atoms: _233  and  _235
REMARK  101  A    between atoms: _235  and  _236
REMARK  102  A    between atoms: _235  and  _238
REMARK  103  A    between atoms: _238  and  _239
REMARK  104  A    between atoms: _243  and  _244
REMARK  105  A    between atoms: _249  and  _251
REMARK  106  A    between atoms: _251  and  _252
REMARK  107  A    between atoms: _251  and  _254
REMARK  108  A    between atoms: _254  and  _255
REMARK  109  A    between atoms: _257  and  _259
REMARK  110  A    between atoms: _259  and  _260
REMARK  111  A    between atoms: _262  and  _264
REMARK  112  A    between atoms: _264  and  _265
REMARK  113  A    between atoms: _264  and  _267
REMARK  114  A    between atoms: _267  and  _268
REMARK  115  A    between atoms: _271  and  _273
REMARK  116  A    between atoms: _273  and  _274
REMARK  117  A    between atoms: _273  and  _276
REMARK  118  A    between atoms: _276  and  _277
REMARK  119  A    between atoms: _280  and  _282
REMARK  120  A    between atoms: _282  and  _283
REMARK  121  A    between atoms: _286  and  _288
REMARK  122  A    between atoms: _288  and  _289
REMARK  123  A    between atoms: _288  and  _291
REMARK  124  A    between atoms: _291  and  _292
REMARK  125  A    between atoms: _297  and  _298
REMARK  126  A    between atoms: _300  and  _302
REMARK  127  A    between atoms: _302  and  _303
REMARK  128  A    between atoms: _302  and  _305
REMARK  129  A    between atoms: _305  and  _306
REMARK  130  A    between atoms: _311  and  _313
REMARK  131  A    between atoms: _313  and  _314
REMARK  132  A    between atoms: _313  and  _316
REMARK  133  A    between atoms: _316  and  _317
REMARK  134  A    between atoms: _317  and  _318
REMARK  135  A    between atoms: _318  and  _319
REMARK  136  A    between atoms: _319  and  _320
REMARK  137  A    between atoms: _324  and  _326
REMARK  138  A    between atoms: _326  and  _327
REMARK  139  A    between atoms: _326  and  _329
REMARK  140  A    between atoms: _329  and  _330
REMARK  141  A    between atoms: _332  and  _334
REMARK  142  A    between atoms: _334  and  _335
REMARK  143  A    between atoms: _334  and  _337
REMARK  144  A    between atoms: _337  and  _338
REMARK  145  A    between atoms: _341  and  _343
REMARK  146  A    between atoms: _343  and  _344
REMARK  147  A    between atoms: _343  and  _346
REMARK  148  A    between atoms: _346  and  _347
REMARK  149  A    between atoms: _350  and  _352
REMARK  150  A    between atoms: _352  and  _353
REMARK  151  A    between atoms: _352  and  _355
REMARK  152  A    between atoms: _355  and  _356
REMARK  153  A    between atoms: _356  and  _357
REMARK  154  A    between atoms: _359  and  _361
REMARK  155  A    between atoms: _361  and  _362
REMARK  156  A    between atoms: _361  and  _364
REMARK  157  A    between atoms: _364  and  _365
REMARK  158  A    between atoms: _367  and  _369
REMARK  159  A    between atoms: _369  and  _370
REMARK  160  A    between atoms: _369  and  _372
REMARK  161  A    between atoms: _375  and  _377
REMARK  162  A    between atoms: _377  and  _378
REMARK  163  A    between atoms: _377  and  _380
REMARK  164  A    between atoms: _380  and  _381
REMARK  165  A    between atoms: _384  and  _386
REMARK  166  A    between atoms: _386  and  _387
REMARK  167  A    between atoms: _386  and  _389
REMARK  168  A    between atoms: _389  and  _390
REMARK  169  A    between atoms: _395  and  _397
REMARK  170  A    between atoms: _397  and  _398
REMARK  171  A    between atoms: _397  and  _400
REMARK  172  A    between atoms: _400  and  _401
REMARK  173  A    between atoms: _404  and  _406
REMARK  174  A    between atoms: _406  and  _407
REMARK  175  A    between atoms: _406  and  _409
REMARK  176  A    between atoms: _409  and  _410
REMARK  177  A    between atoms: _416  and  _418
REMARK  178  A    between atoms: _418  and  _419
REMARK  179  A    between atoms: _418  and  _421
REMARK  180  A    between atoms: _421  and  _422
REMARK  181  A    between atoms: _422  and  _423
REMARK  182  A    between atoms: _423  and  _424
REMARK  183  A    between atoms: _433  and  _435
REMARK  184  A    between atoms: _435  and  _436
REMARK  185  A    between atoms: _435  and  _438
REMARK  186  A    between atoms: _441  and  _443
REMARK  187  A    between atoms: _443  and  _444
REMARK  188  A    between atoms: _443  and  _446
REMARK  189  A    between atoms: _446  and  _447
REMARK  190  A    between atoms: _449  and  _451
REMARK  191  A    between atoms: _451  and  _452
REMARK  192  A    between atoms: _451  and  _454
REMARK  193  A    between atoms: _454  and  _455
REMARK  194  A    between atoms: _461  and  _463
REMARK  195  A    between atoms: _463  and  _464
REMARK  196  A    between atoms: _463  and  _466
REMARK  197  A    between atoms: _466  and  _467
REMARK  198  A    between atoms: _469  and  _471
REMARK  199  A    between atoms: _471  and  _472
REMARK  200  A    between atoms: _475  and  _476
REMARK  201  A    between atoms: _481  and  _483
REMARK  202  A    between atoms: _483  and  _484
REMARK  203  A    between atoms: _483  and  _486
REMARK  204  A    between atoms: _486  and  _487
REMARK  205  A    between atoms: _493  and  _495
REMARK  206  A    between atoms: _495  and  _496
REMARK  207  A    between atoms: _495  and  _498
REMARK  208  A    between atoms: _498  and  _499
REMARK  209  A    between atoms: _505  and  _507
REMARK  210  A    between atoms: _507  and  _508
REMARK  211  A    between atoms: _507  and  _510
REMARK  212  A    between atoms: _510  and  _511
REMARK  213  A    between atoms: _511  and  _512
REMARK  214  A    between atoms: _512  and  _513
REMARK  215  A    between atoms: _522  and  _524
REMARK  216  A    between atoms: _524  and  _525
REMARK  217  A    between atoms: _527  and  _529
REMARK  218  A    between atoms: _529  and  _530
REMARK  219  A    between atoms: _529  and  _532
REMARK  220  A    between atoms: _532  and  _533
REMARK  221  A    between atoms: _536  and  _538
REMARK  222  A    between atoms: _538  and  _539
REMARK  223  A    between atoms: _541  and  _543
REMARK  224  A    between atoms: _543  and  _544
REMARK  225  A    between atoms: _543  and  _546
REMARK  226  A    between atoms: _546  and  _547
REMARK  227  A    between atoms: _547  and  _548
REMARK  228  A    between atoms: _550  and  _552
REMARK  229  A    between atoms: _552  and  _553
REMARK  230  A    between atoms: _556  and  _558
REMARK  231  A    between atoms: _558  and  _559
REMARK  232  A    between atoms: _558  and  _561
REMARK  233  A    between atoms: _561  and  _562
REMARK  234  A    between atoms: _564  and  _566
REMARK  235  A    between atoms: _566  and  _567
REMARK  236  A    between atoms: _566  and  _569
REMARK  237  A    between atoms: _569  and  _570
REMARK  238  A    between atoms: _573  and  _575
REMARK  239  A    between atoms: _575  and  _576
REMARK  240  A    between atoms: _575  and  _578
REMARK  241  A    between atoms: _578  and  _579
REMARK  242  A    between atoms: _584  and  _586
REMARK  243  A    between atoms: _586  and  _587
REMARK  244  A    between atoms: _586  and  _589
REMARK  245  A    between atoms: _589  and  _590
REMARK  246  A    between atoms: _595  and  _597
REMARK  247  A    between atoms: _597  and  _598
REMARK  248  A    between atoms: _597  and  _600
REMARK  249  A    between atoms: _603  and  _605
REMARK  250  A    between atoms: _605  and  _606
REMARK  251  A    between atoms: _605  and  _608
REMARK  252  A    between atoms: _608  and  _609
REMARK  253  A    between atoms: _614  and  _615
REMARK                            x       y       z     vdW  Elec       q    Type
REMARK                         _______ _______ _______ _____ _____    ______ ____
ROOT
ATOM      1  CA  GLU A   3      17.210  14.495   3.365  0.00  0.00    +0.149 C 
ENDROOT
BRANCH   1   3
ATOM      2  C   ASN A   2      18.168  15.489   5.350  0.00  0.00    +0.241 C 
ATOM      3  N   GLU A   3      17.119  14.933   4.753  0.00  0.00    -0.297 N 
ATOM      4  H   GLU A   3      16.230  14.810   5.278  0.00  0.00    +0.150 HD
ATOM      5  O   ASN A   2      19.202  15.724   4.739  0.00  0.00    -0.273 OA
BRANCH   2   6
ATOM      6  CA  ASN A   2      18.053  15.837   6.853  0.00  0.00    +0.158 C 
BRANCH   6   9
ATOM      7  C   LEU A   1      17.754  18.218   7.208  0.00  0.00    +0.238 C 
ATOM      8  O   LEU A   1      18.963  18.401   7.351  0.00  0.00    -0.274 OA
ATOM      9  N   ASN A   2      17.217  17.007   7.048  0.00  0.00    -0.297 N 
ATOM     10  H   ASN A   2      16.183  16.900   7.063  0.00  0.00    +0.150 HD
BRANCH   7  11
ATOM     11  CA  LEU A   1      16.780  19.383   7.241  0.00  0.00    +0.145 C 
BRANCH  11  12
ATOM     12  N   LEU A   1      15.628  19.055   6.383  0.00  0.00    -0.238 NA
ATOM     13  H   LEU A   1      14.886  18.430   6.757  0.00  0.00    +0.142 HD
ENDBRANCH  11  12
BRANCH  11  14
ATOM     14  CB  LEU A   1      16.320  19.667   8.678  0.00  0.00    +0.026 C 
BRANCH  14  15
ATOM     15  CG  LEU A   1      17.326  19.784   9.835  0.00  0.00    +0.002 C 
ATOM     16  CD2 LEU A   1      16.560  19.890  11.193  0.00  0.00    +0.000 C 
ATOM     17  CD1 LEU A   1      18.293  20.957   9.664  0.00  0.00    +0.000 C 
ENDBRANCH  14  15
ENDBRANCH  11  14
ENDBRANCH   7  11
ENDBRANCH   6   9
BRANCH   6  18
ATOM     18  CB  ASN A   2      17.530  14.657   7.667  0.00  0.00    +0.114 C 
BRANCH  18  19
ATOM     19  CG  ASN A   2      18.142  14.568   9.062  0.00  0.00    +0.222 C 
ATOM     20  ND2 ASN A   2      17.765  13.507   9.791  0.00  0.00    -0.329 N 
ATOM     21 HD21 ASN A   2      18.158  13.364  10.743  0.00  0.00    +0.145 HD
ATOM     22 HD22 ASN A   2      17.079  12.827   9.404  0.00  0.00    +0.145 HD
ATOM     23  OD1 ASN A   2      18.955  15.407   9.475  0.00  0.00    -0.275 OA
ENDBRANCH  18  19
ENDBRANCH   6  18
ENDBRANCH   2   6
ENDBRANCH   1   3
BRANCH   1  24
ATOM     24  C   GLU A   3      15.839  14.280   2.709  0.00  0.00    +0.241 C 
ATOM     25  O   GLU A   3      14.791  14.256   3.380  0.00  0.00    -0.273 OA
ATOM     26  N   SER A   4      15.849  14.121   1.395  0.00  0.00    -0.295 N 
ATOM     27  H   SER A   4      16.715  14.337   0.862  0.00  0.00    +0.150 HD
BRANCH  26  28
ATOM     28  CA  SER A   4      14.670  13.649   0.681  0.00  0.00    +0.178 C 
BRANCH  28  29
ATOM     29  C   SER A   4      15.090  12.477  -0.171  0.00  0.00    +0.243 C 
ATOM     30  N   THR A   5      14.288  11.421  -0.180  0.00  0.00    -0.296 N 
ATOM     31  H   THR A   5      13.411  11.438   0.378  0.00  0.00    +0.150 HD
ATOM     32  O   SER A   4      16.146  12.505  -0.795  0.00  0.00    -0.273 OA
BRANCH  30  33
ATOM     33  CA  THR A   5      14.618  10.241  -0.959  0.00  0.00    +0.164 C 
BRANCH  33  34
ATOM     34  C   THR A   5      13.493   9.947  -1.935  0.00  0.00    +0.229 C 
ATOM     35  O   THR A   5      12.394  10.487  -1.814  0.00  0.00    -0.286 OA
ENDBRANCH  33  34
BRANCH  33  36
ATOM     36  CB  THR A   5      14.863   8.988  -0.069  0.00  0.00    +0.136 C 
ATOM     37  CG2 THR A   5      15.772   9.302   1.114  0.00  0.00    +0.034 C 
BRANCH  36  38
ATOM     38  OG1 THR A   5      13.612   8.479   0.408  0.00  0.00    -0.382 OA
ATOM     39  HG1 THR A   5      13.155   9.176   0.942  0.00  0.00    +0.210 HD
ENDBRANCH  36  38
ENDBRANCH  33  36
ENDBRANCH  30  33
ENDBRANCH  28  29
BRANCH  28  40
ATOM     40  CB  SER A   4      14.061  14.764  -0.186  0.00  0.00    +0.166 C 
BRANCH  40  41
ATOM     41  OG  SER A   4      13.178  14.251  -1.189  0.00  0.00    -0.380 OA
ATOM     42  H   SER A   4      12.436  13.760  -0.754  0.00  0.00    +0.211 HD
ENDBRANCH  40  41
ENDBRANCH  28  40
ENDBRANCH  26  28
ENDBRANCH   1  24
BRANCH   1  43
ATOM     43  CB  GLU A   3      18.013  13.188   3.305  0.00  0.00    +0.041 C 
BRANCH  43  44
ATOM     44  CG  GLU A   3      17.246  11.966   3.684  0.00  0.00    +0.116 C 
BRANCH  44  45
ATOM     45  CD  GLU A   3      17.083  11.811   5.180  0.00  0.00    +0.365 C 
ATOM     46  OE2 GLU A   3      18.094  11.829   5.898  0.00  0.00    -0.246 OA
ATOM     47  OE1 GLU A   3      15.936  11.644   5.631  0.00  0.00    -0.246 OA
ENDBRANCH  44  45
ENDBRANCH  43  44
ENDBRANCH   1  43
TORSDOF 21
REMARK  Name = ../refined-set-2016/4dy6/4dy6_pocket.pdb
REMARK  253 active torsions:
REMARK  status: ('A' for Active; 'I' for Inactive)
REMARK    1  A    between atoms: _1  and  _3
REMARK    2  A    between atoms: _3  and  _4
REMARK    3  A    between atoms: _3  and  _6
REMARK    4  A    between atoms: _6  and  _7
REMARK    5  A    between atoms: _7  and  _8
REMARK    6  A    between atoms: _8  and  _9
REMARK    7  A    between atoms: _9  and  _10
REMARK    8  A    between atoms: _14  and  _16
REMARK    9  A    between atoms: _16  and  _17
REMARK   10  A    between atoms: _19  and  _21
REMARK   11  A    between atoms: _21  and  _22
REMARK   12  A    between atoms: _24  and  _26
REMARK   13  A    between atoms: _26  and  _27
REMARK   14  A    between atoms: _26  and  _29
REMARK   15  A    between atoms: _29  and  _30
REMARK   16  A    between atoms: _33  and  _35
REMARK   17  A    between atoms: _35  and  _36
REMARK   18  A    between atoms: _38  and  _40
REMARK   19  A    between atoms: _40  and  _41
REMARK   20  A    between atoms: _40  and  _43
REMARK   21  A    between atoms: _43  and  _44
REMARK   22  A    between atoms: _47  and  _49
REMARK   23  A    between atoms: _49  and  _50
REMARK   24  A    between atoms: _49  and  _52
REMARK   25  A    between atoms: _52  and  _53
REMARK   26  A    between atoms: _59  and  _61
REMARK   27  A    between atoms: _61  and  _62
REMARK   28  A    between atoms: _61  and  _64
REMARK   29  A    between atoms: _64  and  _65
REMARK   30  A    between atoms: _68  and  _70
REMARK   31  A    between atoms: _70  and  _71
REMARK   32  A    between atoms: _70  and  _73
REMARK   33  A    between atoms: _73  and  _74
REMARK   34  A    between atoms: _76  and  _78
REMARK   35  A    between atoms: _78  and  _79
REMARK   36  A    between atoms: _78  and  _81
REMARK   37  A    between atoms: _81  and  _82
REMARK   38  A    between atoms: _87  and  _89
REMARK   39  A    between atoms: _89  and  _90
REMARK   40  A    between atoms: _89  and  _92
REMARK   41  A    between atoms: _92  and  _93
REMARK   42  A    between atoms: _96  and  _98
REMARK   43  A    between atoms: _98  and  _99
REMARK   44  A    between atoms: _101  and  _103
REMARK   45  A    between atoms: _103  and  _104
REMARK   46  A    between atoms: _103  and  _106
REMARK   47  A    between atoms: _106  and  _107
REMARK   48  A    between atoms: _112  and  _114
REMARK   49  A    between atoms: _114  and  _115
REMARK   50  A    between atoms: _114  and  _117
REMARK   51  A    between atoms: _117  and  _118
REMARK   52  A    between atoms: _121  and  _123
REMARK   53  A    between atoms: _123  and  _124
REMARK   54  A    between atoms: _126  and  _128
REMARK   55  A    between atoms: _128  and  _129
REMARK   56  A    between atoms: _128  and  _131
REMARK   57  A    between atoms: _131  and  _132
REMARK   58  A    between atoms: _138  and  _140
REMARK   59  A    between atoms: _140  and  _141
REMARK   60  A    between atoms: _140  and  _143
REMARK   61  A    between atoms: _143  and  _144
REMARK   62  A    between atoms: _149  and  _150
REMARK   63  A    between atoms: _152  and  _154
REMARK   64  A    between atoms: _154  and  _155
REMARK   65  A    between atoms: _158  and  _160
REMARK   66  A    between atoms: _160  and  _161
REMARK   67  A    between atoms: _160  and  _163
REMARK   68  A    between atoms: _163  and  _164
REMARK   69  A    between atoms: _167  and  _169
REMARK   70  A    between atoms: _169  and  _170
REMARK   71  A    between atoms: _169  and  _172
REMARK   72  A    between atoms: _172  and  _173
REMARK   73  A    between atoms: _178  and  _180
REMARK   74  A    between atoms: _180  and  _181
REMARK   75  A    between atoms: _180  and  _183
REMARK   76  A    between atoms: _183  and  _184
REMARK   77  A    between atoms: _184  and  _185
REMARK   78  A    between atoms: _188  and  _190
REMARK   79  A    between atoms: _190  and  _191
REMARK   80  A    between atoms: _190  and  _193
REMARK   81  A    between atoms: _193  and  _194
REMARK   82  A    between atoms: _196  and  _198
REMARK   83  A    between atoms: _198  and  _199
REMARK   84  A    between atoms: _198  and  _201
REMARK   85  A    between atoms: _201  and  _202
REMARK   86  A    between atoms: _205  and  _207
REMARK   87  A    between atoms: _207  and  _208
REMARK   88  A    between atoms: _207  and  _210
REMARK   89  A    between atoms: _210  and  _211
REMARK   90  A    between atoms: _211  and  _212
REMARK   91  A    between atoms: _212  and  _213
REMARK   92  A    between atoms: _213  and  _214
REMARK   93  A    between atoms: _218  and  _220
REMARK   94  A    between atoms: _220  and  _221
REMARK   95  A    between atoms: _220  and  _223
REMARK   96  A    between atoms: _225  and  _227
REMARK   97  A    between atoms: _227  and  _228
REMARK   98  A    between atoms: _227  and  _230
REMARK   99  A    between atoms: _230  and  _231
REMARK  100  A    between atoms: _233  and  _235
REMARK  101  A    between atoms: _235  and  _236
REMARK  102  A    between atoms: _235  and  _238
REMARK  103  A    between atoms: _238  and  _239
REMARK  104  A    between atoms: _243  and  _244
REMARK  105  A    between atoms: _249  and  _251
REMARK  106  A    between atoms: _251  and  _252
REMARK  107  A    between atoms: _251  and  _254
REMARK  108  A    between atoms: _254  and  _255
REMARK  109  A    between atoms: _257  and  _259
REMARK  110  A    between atoms: _259  and  _260
REMARK  111  A    between atoms: _262  and  _264
REMARK  112  A    between atoms: _264  and  _265
REMARK  113  A    between atoms: _264  and  _267
REMARK  114  A    between atoms: _267  and  _268
REMARK  115  A    between atoms: _271  and  _273
REMARK  116  A    between atoms: _273  and  _274
REMARK  117  A    between atoms: _273  and  _276
REMARK  118  A    between atoms: _276  and  _277
REMARK  119  A    between atoms: _280  and  _282
REMARK  120  A    between atoms: _282  and  _283
REMARK  121  A    between atoms: _286  and  _288
REMARK  122  A    between atoms: _288  and  _289
REMARK  123  A    between atoms: _288  and  _291
REMARK  124  A    between atoms: _291  and  _292
REMARK  125  A    between atoms: _297  and  _298
REMARK  126  A    between atoms: _300  and  _302
REMARK  127  A    between atoms: _302  and  _303
REMARK  128  A    between atoms: _302  and  _305
REMARK  129  A    between atoms: _305  and  _306
REMARK  130  A    between atoms: _311  and  _313
REMARK  131  A    between atoms: _313  and  _314
REMARK  132  A    between atoms: _313  and  _316
REMARK  133  A    between atoms: _316  and  _317
REMARK  134  A    between atoms: _317  and  _318
REMARK  135  A    between atoms: _318  and  _319
REMARK  136  A    between atoms: _319  and  _320
REMARK  137  A    between atoms: _324  and  _326
REMARK  138  A    between atoms: _326  and  _327
REMARK  139  A    between atoms: _326  and  _329
REMARK  140  A    between atoms: _329  and  _330
REMARK  141  A    between atoms: _332  and  _334
REMARK  142  A    between atoms: _334  and  _335
REMARK  143  A    between atoms: _334  and  _337
REMARK  144  A    between atoms: _337  and  _338
REMARK  145  A    between atoms: _341  and  _343
REMARK  146  A    between atoms: _343  and  _344
REMARK  147  A    between atoms: _343  and  _346
REMARK  148  A    between atoms: _346  and  _347
REMARK  149  A    between atoms: _350  and  _352
REMARK  150  A    between atoms: _352  and  _353
REMARK  151  A    between atoms: _352  and  _355
REMARK  152  A    between atoms: _355  and  _356
REMARK  153  A    between atoms: _356  and  _357
REMARK  154  A    between atoms: _359  and  _361
REMARK  155  A    between atoms: _361  and  _362
REMARK  156  A    between atoms: _361  and  _364
REMARK  157  A    between atoms: _364  and  _365
REMARK  158  A    between atoms: _367  and  _369
REMARK  159  A    between atoms: _369  and  _370
REMARK  160  A    between atoms: _369  and  _372
REMARK  161  A    between atoms: _375  and  _377
REMARK  162  A    between atoms: _377  and  _378
REMARK  163  A    between atoms: _377  and  _380
REMARK  164  A    between atoms: _380  and  _381
REMARK  165  A    between atoms: _384  and  _386
REMARK  166  A    between atoms: _386  and  _387
REMARK  167  A    between atoms: _386  and  _389
REMARK  168  A    between atoms: _389  and  _390
REMARK  169  A    between atoms: _395  and  _397
REMARK  170  A    between atoms: _397  and  _398
REMARK  171  A    between atoms: _397  and  _400
REMARK  172  A    between atoms: _400  and  _401
REMARK  173  A    between atoms: _404  and  _406
REMARK  174  A    between atoms: _406  and  _407
REMARK  175  A    between atoms: _406  and  _409
REMARK  176  A    between atoms: _409  and  _410
REMARK  177  A    between atoms: _416  and  _418
REMARK  178  A    between atoms: _418  and  _419
REMARK  179  A    between atoms: _418  and  _421
REMARK  180  A    between atoms: _421  and  _422
REMARK  181  A    between atoms: _422  and  _423
REMARK  182  A    between atoms: _423  and  _424
REMARK  183  A    between atoms: _433  and  _435
REMARK  184  A    between atoms: _435  and  _436
REMARK  185  A    between atoms: _435  and  _438
REMARK  186  A    between atoms: _441  and  _443
REMARK  187  A    between atoms: _443  and  _444
REMARK  188  A    between atoms: _443  and  _446
REMARK  189  A    between atoms: _446  and  _447
REMARK  190  A    between atoms: _449  and  _451
REMARK  191  A    between atoms: _451  and  _452
REMARK  192  A    between atoms: _451  and  _454
REMARK  193  A    between atoms: _454  and  _455
REMARK  194  A    between atoms: _461  and  _463
REMARK  195  A    between atoms: _463  and  _464
REMARK  196  A    between atoms: _463  and  _466
REMARK  197  A    between atoms: _466  and  _467
REMARK  198  A    between atoms: _469  and  _471
REMARK  199  A    between atoms: _471  and  _472
REMARK  200  A    between atoms: _475  and  _476
REMARK  201  A    between atoms: _481  and  _483
REMARK  202  A    between atoms: _483  and  _484
REMARK  203  A    between atoms: _483  and  _486
REMARK  204  A    between atoms: _486  and  _487
REMARK  205  A    between atoms: _493  and  _495
REMARK  206  A    between atoms: _495  and  _496
REMARK  207  A    between atoms: _495  and  _498
REMARK  208  A    between atoms: _498  and  _499
REMARK  209  A    between atoms: _505  and  _507
REMARK  210  A    between atoms: _507  and  _508
REMARK  211  A    between atoms: _507  and  _510
REMARK  212  A    between atoms: _510  and  _511
REMARK  213  A    between atoms: _511  and  _512
REMARK  214  A    between atoms: _512  and  _513
REMARK  215  A    between atoms: _522  and  _524
REMARK  216  A    between atoms: _524  and  _525
REMARK  217  A    between atoms: _527  and  _529
REMARK  218  A    between atoms: _529  and  _530
REMARK  219  A    between atoms: _529  and  _532
REMARK  220  A    between atoms: _532  and  _533
REMARK  221  A    between atoms: _536  and  _538
REMARK  222  A    between atoms: _538  and  _539
REMARK  223  A    between atoms: _541  and  _543
REMARK  224  A    between atoms: _543  and  _544
REMARK  225  A    between atoms: _543  and  _546
REMARK  226  A    between atoms: _546  and  _547
REMARK  227  A    between atoms: _547  and  _548
REMARK  228  A    between atoms: _550  and  _552
REMARK  229  A    between atoms: _552  and  _553
REMARK  230  A    between atoms: _556  and  _558
REMARK  231  A    between atoms: _558  and  _559
REMARK  232  A    between atoms: _558  and  _561
REMARK  233  A    between atoms: _561  and  _562
REMARK  234  A    between atoms: _564  and  _566
REMARK  235  A    between atoms: _566  and  _567
REMARK  236  A    between atoms: _566  and  _569
REMARK  237  A    between atoms: _569  and  _570
REMARK  238  A    between atoms: _573  and  _575
REMARK  239  A    between atoms: _575  and  _576
REMARK  240  A    between atoms: _575  and  _578
REMARK  241  A    between atoms: _578  and  _579
REMARK  242  A    between atoms: _584  and  _586
REMARK  243  A    between atoms: _586  and  _587
REMARK  244  A    between atoms: _586  and  _589
REMARK  245  A    between atoms: _589  and  _590
REMARK  246  A    between atoms: _595  and  _597
REMARK  247  A    between atoms: _597  and  _598
REMARK  248  A    between atoms: _597  and  _600
REMARK  249  A    between atoms: _603  and  _605
REMARK  250  A    between atoms: _605  and  _606
REMARK  251  A    between atoms: _605  and  _608
REMARK  252  A    between atoms: _608  and  _609
REMARK  253  A    between atoms: _614  and  _615
REMARK                            x       y       z     vdW  Elec       q    Type
REMARK                         _______ _______ _______ _____ _____    ______ ____
ROOT
ATOM      1  CG  LYS A   1      12.845   4.523  -2.096  0.00  0.00    -0.000 C 
ENDROOT
BRANCH   1   2
ATOM      2  CB  LYS A   1      11.760   4.209  -3.146  0.00  0.00    +0.025 C 
BRANCH   2   3
ATOM      3  CA  LYS A   1      11.878   5.022  -4.438  0.00  0.00    +0.133 C 
BRANCH   3   4
ATOM      4  N   LYS A   1      11.961   6.465  -4.132  0.00  0.00    -0.239 NA
ATOM      5  H   LYS A   1      11.080   6.943  -3.855  0.00  0.00    +0.142 HD
ENDBRANCH   3   4
BRANCH   3   6
ATOM      6  C   LYS A   1      10.648   4.735  -5.340  0.00  0.00    +0.224 C 
ATOM      7  O   LYS A   1       9.783   5.594  -5.507  0.00  0.00    -0.287 OA
ENDBRANCH   3   6
ENDBRANCH   2   3
ENDBRANCH   1   2
BRANCH   1   8
ATOM      8  CD  LYS A   1      12.672   3.723  -0.796  0.00  0.00    -0.024 C 
BRANCH   8   9
ATOM      9  CE  LYS A   1      13.659   4.206   0.274  0.00  0.00    -0.086 C 
BRANCH   9  10
ATOM     10  NZ  LYS A   1      13.553   3.487   1.586  0.00  0.00    +0.380 N 
ATOM     11  HZ1 LYS A   1      14.254   3.874   2.250  0.00  0.00    -0.089 HD
ATOM     12  HZ2 LYS A   1      12.597   3.616   1.974  0.00  0.00    -0.089 HD
ATOM     13  HZ3 LYS A   1      13.735   2.474   1.440  0.00  0.00    -0.089 HD
ENDBRANCH   9  10
ENDBRANCH   8   9
ENDBRANCH   1   8
TORSDOF 7
REMARK  Name = ../refined-set-2016/4dy6/4dy6_pocket.pdb
REMARK  253 active torsions:
REMARK  status: ('A' for Active; 'I' for Inactive)
REMARK    1  A    between atoms: _1  and  _3
REMARK    2  A    between atoms: _3  and  _4
REMARK    3  A    between atoms: _3  and  _6
REMARK    4  A    between atoms: _6  and  _7
REMARK    5  A    between atoms: _7  and  _8
REMARK    6  A    between atoms: _8  and  _9
REMARK    7  A    between atoms: _9  and  _10
REMARK    8  A    between atoms: _14  and  _16
REMARK    9  A    between atoms: _16  and  _17
REMARK   10  A    between atoms: _19  and  _21
REMARK   11  A    between atoms: _21  and  _22
REMARK   12  A    between atoms: _24  and  _26
REMARK   13  A    between atoms: _26  and  _27
REMARK   14  A    between atoms: _26  and  _29
REMARK   15  A    between atoms: _29  and  _30
REMARK   16  A    between atoms: _33  and  _35
REMARK   17  A    between atoms: _35  and  _36
REMARK   18  A    between atoms: _38  and  _40
REMARK   19  A    between atoms: _40  and  _41
REMARK   20  A    between atoms: _40  and  _43
REMARK   21  A    between atoms: _43  and  _44
REMARK   22  A    between atoms: _47  and  _49
REMARK   23  A    between atoms: _49  and  _50
REMARK   24  A    between atoms: _49  and  _52
REMARK   25  A    between atoms: _52  and  _53
REMARK   26  A    between atoms: _59  and  _61
REMARK   27  A    between atoms: _61  and  _62
REMARK   28  A    between atoms: _61  and  _64
REMARK   29  A    between atoms: _64  and  _65
REMARK   30  A    between atoms: _68  and  _70
REMARK   31  A    between atoms: _70  and  _71
REMARK   32  A    between atoms: _70  and  _73
REMARK   33  A    between atoms: _73  and  _74
REMARK   34  A    between atoms: _76  and  _78
REMARK   35  A    between atoms: _78  and  _79
REMARK   36  A    between atoms: _78  and  _81
REMARK   37  A    between atoms: _81  and  _82
REMARK   38  A    between atoms: _87  and  _89
REMARK   39  A    between atoms: _89  and  _90
REMARK   40  A    between atoms: _89  and  _92
REMARK   41  A    between atoms: _92  and  _93
REMARK   42  A    between atoms: _96  and  _98
REMARK   43  A    between atoms: _98  and  _99
REMARK   44  A    between atoms: _101  and  _103
REMARK   45  A    between atoms: _103  and  _104
REMARK   46  A    between atoms: _103  and  _106
REMARK   47  A    between atoms: _106  and  _107
REMARK   48  A    between atoms: _112  and  _114
REMARK   49  A    between atoms: _114  and  _115
REMARK   50  A    between atoms: _114  and  _117
REMARK   51  A    between atoms: _117  and  _118
REMARK   52  A    between atoms: _121  and  _123
REMARK   53  A    between atoms: _123  and  _124
REMARK   54  A    between atoms: _126  and  _128
REMARK   55  A    between atoms: _128  and  _129
REMARK   56  A    between atoms: _128  and  _131
REMARK   57  A    between atoms: _131  and  _132
REMARK   58  A    between atoms: _138  and  _140
REMARK   59  A    between atoms: _140  and  _141
REMARK   60  A    between atoms: _140  and  _143
REMARK   61  A    between atoms: _143  and  _144
REMARK   62  A    between atoms: _149  and  _150
REMARK   63  A    between atoms: _152  and  _154
REMARK   64  A    between atoms: _154  and  _155
REMARK   65  A    between atoms: _158  and  _160
REMARK   66  A    between atoms: _160  and  _161
REMARK   67  A    between atoms: _160  and  _163
REMARK   68  A    between atoms: _163  and  _164
REMARK   69  A    between atoms: _167  and  _169
REMARK   70  A    between atoms: _169  and  _170
REMARK   71  A    between atoms: _169  and  _172
REMARK   72  A    between atoms: _172  and  _173
REMARK   73  A    between atoms: _178  and  _180
REMARK   74  A    between atoms: _180  and  _181
REMARK   75  A    between atoms: _180  and  _183
REMARK   76  A    between atoms: _183  and  _184
REMARK   77  A    between atoms: _184  and  _185
REMARK   78  A    between atoms: _188  and  _190
REMARK   79  A    between atoms: _190  and  _191
REMARK   80  A    between atoms: _190  and  _193
REMARK   81  A    between atoms: _193  and  _194
REMARK   82  A    between atoms: _196  and  _198
REMARK   83  A    between atoms: _198  and  _199
REMARK   84  A    between atoms: _198  and  _201
REMARK   85  A    between atoms: _201  and  _202
REMARK   86  A    between atoms: _205  and  _207
REMARK   87  A    between atoms: _207  and  _208
REMARK   88  A    between atoms: _207  and  _210
REMARK   89  A    between atoms: _210  and  _211
REMARK   90  A    between atoms: _211  and  _212
REMARK   91  A    between atoms: _212  and  _213
REMARK   92  A    between atoms: _213  and  _214
REMARK   93  A    between atoms: _218  and  _220
REMARK   94  A    between atoms: _220  and  _221
REMARK   95  A    between atoms: _220  and  _223
REMARK   96  A    between atoms: _225  and  _227
REMARK   97  A    between atoms: _227  and  _228
REMARK   98  A    between atoms: _227  and  _230
REMARK   99  A    between atoms: _230  and  _231
REMARK  100  A    between atoms: _233  and  _235
REMARK  101  A    between atoms: _235  and  _236
REMARK  102  A    between atoms: _235  and  _238
REMARK  103  A    between atoms: _238  and  _239
REMARK  104  A    between atoms: _243  and  _244
REMARK  105  A    between atoms: _249  and  _251
REMARK  106  A    between atoms: _251  and  _252
REMARK  107  A    between atoms: _251  and  _254
REMARK  108  A    between atoms: _254  and  _255
REMARK  109  A    between atoms: _257  and  _259
REMARK  110  A    between atoms: _259  and  _260
REMARK  111  A    between atoms: _262  and  _264
REMARK  112  A    between atoms: _264  and  _265
REMARK  113  A    between atoms: _264  and  _267
REMARK  114  A    between atoms: _267  and  _268
REMARK  115  A    between atoms: _271  and  _273
REMARK  116  A    between atoms: _273  and  _274
REMARK  117  A    between atoms: _273  and  _276
REMARK  118  A    between atoms: _276  and  _277
REMARK  119  A    between atoms: _280  and  _282
REMARK  120  A    between atoms: _282  and  _283
REMARK  121  A    between atoms: _286  and  _288
REMARK  122  A    between atoms: _288  and  _289
REMARK  123  A    between atoms: _288  and  _291
REMARK  124  A    between atoms: _291  and  _292
REMARK  125  A    between atoms: _297  and  _298
REMARK  126  A    between atoms: _300  and  _302
REMARK  127  A    between atoms: _302  and  _303
REMARK  128  A    between atoms: _302  and  _305
REMARK  129  A    between atoms: _305  and  _306
REMARK  130  A    between atoms: _311  and  _313
REMARK  131  A    between atoms: _313  and  _314
REMARK  132  A    between atoms: _313  and  _316
REMARK  133  A    between atoms: _316  and  _317
REMARK  134  A    between atoms: _317  and  _318
REMARK  135  A    between atoms: _318  and  _319
REMARK  136  A    between atoms: _319  and  _320
REMARK  137  A    between atoms: _324  and  _326
REMARK  138  A    between atoms: _326  and  _327
REMARK  139  A    between atoms: _326  and  _329
REMARK  140  A    between atoms: _329  and  _330
REMARK  141  A    between atoms: _332  and  _334
REMARK  142  A    between atoms: _334  and  _335
REMARK  143  A    between atoms: _334  and  _337
REMARK  144  A    between atoms: _337  and  _338
REMARK  145  A    between atoms: _341  and  _343
REMARK  146  A    between atoms: _343  and  _344
REMARK  147  A    between atoms: _343  and  _346
REMARK  148  A    between atoms: _346  and  _347
REMARK  149  A    between atoms: _350  and  _352
REMARK  150  A    between atoms: _352  and  _353
REMARK  151  A    between atoms: _352  and  _355
REMARK  152  A    between atoms: _355  and  _356
REMARK  153  A    between atoms: _356  and  _357
REMARK  154  A    between atoms: _359  and  _361
REMARK  155  A    between atoms: _361  and  _362
REMARK  156  A    between atoms: _361  and  _364
REMARK  157  A    between atoms: _364  and  _365
REMARK  158  A    between atoms: _367  and  _369
REMARK  159  A    between atoms: _369  and  _370
REMARK  160  A    between atoms: _369  and  _372
REMARK  161  A    between atoms: _375  and  _377
REMARK  162  A    between atoms: _377  and  _378
REMARK  163  A    between atoms: _377  and  _380
REMARK  164  A    between atoms: _380  and  _381
REMARK  165  A    between atoms: _384  and  _386
REMARK  166  A    between atoms: _386  and  _387
REMARK  167  A    between atoms: _386  and  _389
REMARK  168  A    between atoms: _389  and  _390
REMARK  169  A    between atoms: _395  and  _397
REMARK  170  A    between atoms: _397  and  _398
REMARK  171  A    between atoms: _397  and  _400
REMARK  172  A    between atoms: _400  and  _401
REMARK  173  A    between atoms: _404  and  _406
REMARK  174  A    between atoms: _406  and  _407
REMARK  175  A    between atoms: _406  and  _409
REMARK  176  A    between atoms: _409  and  _410
REMARK  177  A    between atoms: _416  and  _418
REMARK  178  A    between atoms: _418  and  _419
REMARK  179  A    between atoms: _418  and  _421
REMARK  180  A    between atoms: _421  and  _422
REMARK  181  A    between atoms: _422  and  _423
REMARK  182  A    between atoms: _423  and  _424
REMARK  183  A    between atoms: _433  and  _435
REMARK  184  A    between atoms: _435  and  _436
REMARK  185  A    between atoms: _435  and  _438
REMARK  186  A    between atoms: _441  and  _443
REMARK  187  A    between atoms: _443  and  _444
REMARK  188  A    between atoms: _443  and  _446
REMARK  189  A    between atoms: _446  and  _447
REMARK  190  A    between atoms: _449  and  _451
REMARK  191  A    between atoms: _451  and  _452
REMARK  192  A    between atoms: _451  and  _454
REMARK  193  A    between atoms: _454  and  _455
REMARK  194  A    between atoms: _461  and  _463
REMARK  195  A    between atoms: _463  and  _464
REMARK  196  A    between atoms: _463  and  _466
REMARK  197  A    between atoms: _466  and  _467
REMARK  198  A    between atoms: _469  and  _471
REMARK  199  A    between atoms: _471  and  _472
REMARK  200  A    between atoms: _475  and  _476
REMARK  201  A    between atoms: _481  and  _483
REMARK  202  A    between atoms: _483  and  _484
REMARK  203  A    between atoms: _483  and  _486
REMARK  204  A    between atoms: _486  and  _487
REMARK  205  A    between atoms: _493  and  _495
REMARK  206  A    between atoms: _495  and  _496
REMARK  207  A    between atoms: _495  and  _498
REMARK  208  A    between atoms: _498  and  _499
REMARK  209  A    between atoms: _505  and  _507
REMARK  210  A    between atoms: _507  and  _508
REMARK  211  A    between atoms: _507  and  _510
REMARK  212  A    between atoms: _510  and  _511
REMARK  213  A    between atoms: _511  and  _512
REMARK  214  A    between atoms: _512  and  _513
REMARK  215  A    between atoms: _522  and  _524
REMARK  216  A    between atoms: _524  and  _525
REMARK  217  A    between atoms: _527  and  _529
REMARK  218  A    between atoms: _529  and  _530
REMARK  219  A    between atoms: _529  and  _532
REMARK  220  A    between atoms: _532  and  _533
REMARK  221  A    between atoms: _536  and  _538
REMARK  222  A    between atoms: _538  and  _539
REMARK  223  A    between atoms: _541  and  _543
REMARK  224  A    between atoms: _543  and  _544
REMARK  225  A    between atoms: _543  and  _546
REMARK  226  A    between atoms: _546  and  _547
REMARK  227  A    between atoms: _547  and  _548
REMARK  228  A    between atoms: _550  and  _552
REMARK  229  A    between atoms: _552  and  _553
REMARK  230  A    between atoms: _556  and  _558
REMARK  231  A    between atoms: _558  and  _559
REMARK  232  A    between atoms: _558  and  _561
REMARK  233  A    between atoms: _561  and  _562
REMARK  234  A    between atoms: _564  and  _566
REMARK  235  A    between atoms: _566  and  _567
REMARK  236  A    between atoms: _566  and  _569
REMARK  237  A    between atoms: _569  and  _570
REMARK  238  A    between atoms: _573  and  _575
REMARK  239  A    between atoms: _575  and  _576
REMARK  240  A    between atoms: _575  and  _578
REMARK  241  A    between atoms: _578  and  _579
REMARK  242  A    between atoms: _584  and  _586
REMARK  243  A    between atoms: _586  and  _587
REMARK  244  A    between atoms: _586  and  _589
REMARK  245  A    between atoms: _589  and  _590
REMARK  246  A    between atoms: _595  and  _597
REMARK  247  A    between atoms: _597  and  _598
REMARK  248  A    between atoms: _597  and  _600
REMARK  249  A    between atoms: _603  and  _605
REMARK  250  A    between atoms: _605  and  _606
REMARK  251  A    between atoms: _605  and  _608
REMARK  252  A    between atoms: _608  and  _609
REMARK  253  A    between atoms: _614  and  _615
REMARK                            x       y       z     vdW  Elec       q    Type
REMARK                         _______ _______ _______ _____ _____    ______ ____
ROOT
ATOM      1  CA  CYS A   1      18.868  10.094  -1.435  0.00  0.00    +0.145 C 
ENDROOT
BRANCH   1   2
ATOM      2  N   CYS A   1      18.967   9.290  -2.648  0.00  0.00    -0.238 NA
ATOM      3  H   CYS A   1      19.907   9.132  -3.064  0.00  0.00    +0.142 HD
ENDBRANCH   1   2
BRANCH   1   4
ATOM      4  CB  CYS A   1      19.466   9.312  -0.263  0.00  0.00    +0.094 C 
ATOM      5  SG  CYS A   1      19.660  10.220   1.288  0.00  0.00    -0.080 S 
ENDBRANCH   1   4
BRANCH   1   6
ATOM      6  C   CYS A   1      19.652  11.374  -1.633  0.00  0.00    +0.225 C 
ATOM      7  O   CYS A   1      20.793  11.319  -2.083  0.00  0.00    -0.287 OA
ENDBRANCH   1   6
TORSDOF 3
REMARK  Name = ../refined-set-2016/4dy6/4dy6_pocket.pdb
REMARK  253 active torsions:
REMARK  status: ('A' for Active; 'I' for Inactive)
REMARK    1  A    between atoms: _1  and  _3
REMARK    2  A    between atoms: _3  and  _4
REMARK    3  A    between atoms: _3  and  _6
REMARK    4  A    between atoms: _6  and  _7
REMARK    5  A    between atoms: _7  and  _8
REMARK    6  A    between atoms: _8  and  _9
REMARK    7  A    between atoms: _9  and  _10
REMARK    8  A    between atoms: _14  and  _16
REMARK    9  A    between atoms: _16  and  _17
REMARK   10  A    between atoms: _19  and  _21
REMARK   11  A    between atoms: _21  and  _22
REMARK   12  A    between atoms: _24  and  _26
REMARK   13  A    between atoms: _26  and  _27
REMARK   14  A    between atoms: _26  and  _29
REMARK   15  A    between atoms: _29  and  _30
REMARK   16  A    between atoms: _33  and  _35
REMARK   17  A    between atoms: _35  and  _36
REMARK   18  A    between atoms: _38  and  _40
REMARK   19  A    between atoms: _40  and  _41
REMARK   20  A    between atoms: _40  and  _43
REMARK   21  A    between atoms: _43  and  _44
REMARK   22  A    between atoms: _47  and  _49
REMARK   23  A    between atoms: _49  and  _50
REMARK   24  A    between atoms: _49  and  _52
REMARK   25  A    between atoms: _52  and  _53
REMARK   26  A    between atoms: _59  and  _61
REMARK   27  A    between atoms: _61  and  _62
REMARK   28  A    between atoms: _61  and  _64
REMARK   29  A    between atoms: _64  and  _65
REMARK   30  A    between atoms: _68  and  _70
REMARK   31  A    between atoms: _70  and  _71
REMARK   32  A    between atoms: _70  and  _73
REMARK   33  A    between atoms: _73  and  _74
REMARK   34  A    between atoms: _76  and  _78
REMARK   35  A    between atoms: _78  and  _79
REMARK   36  A    between atoms: _78  and  _81
REMARK   37  A    between atoms: _81  and  _82
REMARK   38  A    between atoms: _87  and  _89
REMARK   39  A    between atoms: _89  and  _90
REMARK   40  A    between atoms: _89  and  _92
REMARK   41  A    between atoms: _92  and  _93
REMARK   42  A    between atoms: _96  and  _98
REMARK   43  A    between atoms: _98  and  _99
REMARK   44  A    between atoms: _101  and  _103
REMARK   45  A    between atoms: _103  and  _104
REMARK   46  A    between atoms: _103  and  _106
REMARK   47  A    between atoms: _106  and  _107
REMARK   48  A    between atoms: _112  and  _114
REMARK   49  A    between atoms: _114  and  _115
REMARK   50  A    between atoms: _114  and  _117
REMARK   51  A    between atoms: _117  and  _118
REMARK   52  A    between atoms: _121  and  _123
REMARK   53  A    between atoms: _123  and  _124
REMARK   54  A    between atoms: _126  and  _128
REMARK   55  A    between atoms: _128  and  _129
REMARK   56  A    between atoms: _128  and  _131
REMARK   57  A    between atoms: _131  and  _132
REMARK   58  A    between atoms: _138  and  _140
REMARK   59  A    between atoms: _140  and  _141
REMARK   60  A    between atoms: _140  and  _143
REMARK   61  A    between atoms: _143  and  _144
REMARK   62  A    between atoms: _149  and  _150
REMARK   63  A    between atoms: _152  and  _154
REMARK   64  A    between atoms: _154  and  _155
REMARK   65  A    between atoms: _158  and  _160
REMARK   66  A    between atoms: _160  and  _161
REMARK   67  A    between atoms: _160  and  _163
REMARK   68  A    between atoms: _163  and  _164
REMARK   69  A    between atoms: _167  and  _169
REMARK   70  A    between atoms: _169  and  _170
REMARK   71  A    between atoms: _169  and  _172
REMARK   72  A    between atoms: _172  and  _173
REMARK   73  A    between atoms: _178  and  _180
REMARK   74  A    between atoms: _180  and  _181
REMARK   75  A    between atoms: _180  and  _183
REMARK   76  A    between atoms: _183  and  _184
REMARK   77  A    between atoms: _184  and  _185
REMARK   78  A    between atoms: _188  and  _190
REMARK   79  A    between atoms: _190  and  _191
REMARK   80  A    between atoms: _190  and  _193
REMARK   81  A    between atoms: _193  and  _194
REMARK   82  A    between atoms: _196  and  _198
REMARK   83  A    between atoms: _198  and  _199
REMARK   84  A    between atoms: _198  and  _201
REMARK   85  A    between atoms: _201  and  _202
REMARK   86  A    between atoms: _205  and  _207
REMARK   87  A    between atoms: _207  and  _208
REMARK   88  A    between atoms: _207  and  _210
REMARK   89  A    between atoms: _210  and  _211
REMARK   90  A    between atoms: _211  and  _212
REMARK   91  A    between atoms: _212  and  _213
REMARK   92  A    between atoms: _213  and  _214
REMARK   93  A    between atoms: _218  and  _220
REMARK   94  A    between atoms: _220  and  _221
REMARK   95  A    between atoms: _220  and  _223
REMARK   96  A    between atoms: _225  and  _227
REMARK   97  A    between atoms: _227  and  _228
REMARK   98  A    between atoms: _227  and  _230
REMARK   99  A    between atoms: _230  and  _231
REMARK  100  A    between atoms: _233  and  _235
REMARK  101  A    between atoms: _235  and  _236
REMARK  102  A    between atoms: _235  and  _238
REMARK  103  A    between atoms: _238  and  _239
REMARK  104  A    between atoms: _243  and  _244
REMARK  105  A    between atoms: _249  and  _251
REMARK  106  A    between atoms: _251  and  _252
REMARK  107  A    between atoms: _251  and  _254
REMARK  108  A    between atoms: _254  and  _255
REMARK  109  A    between atoms: _257  and  _259
REMARK  110  A    between atoms: _259  and  _260
REMARK  111  A    between atoms: _262  and  _264
REMARK  112  A    between atoms: _264  and  _265
REMARK  113  A    between atoms: _264  and  _267
REMARK  114  A    between atoms: _267  and  _268
REMARK  115  A    between atoms: _271  and  _273
REMARK  116  A    between atoms: _273  and  _274
REMARK  117  A    between atoms: _273  and  _276
REMARK  118  A    between atoms: _276  and  _277
REMARK  119  A    between atoms: _280  and  _282
REMARK  120  A    between atoms: _282  and  _283
REMARK  121  A    between atoms: _286  and  _288
REMARK  122  A    between atoms: _288  and  _289
REMARK  123  A    between atoms: _288  and  _291
REMARK  124  A    between atoms: _291  and  _292
REMARK  125  A    between atoms: _297  and  _298
REMARK  126  A    between atoms: _300  and  _302
REMARK  127  A    between atoms: _302  and  _303
REMARK  128  A    between atoms: _302  and  _305
REMARK  129  A    between atoms: _305  and  _306
REMARK  130  A    between atoms: _311  and  _313
REMARK  131  A    between atoms: _313  and  _314
REMARK  132  A    between atoms: _313  and  _316
REMARK  133  A    between atoms: _316  and  _317
REMARK  134  A    between atoms: _317  and  _318
REMARK  135  A    between atoms: _318  and  _319
REMARK  136  A    between atoms: _319  and  _320
REMARK  137  A    between atoms: _324  and  _326
REMARK  138  A    between atoms: _326  and  _327
REMARK  139  A    between atoms: _326  and  _329
REMARK  140  A    between atoms: _329  and  _330
REMARK  141  A    between atoms: _332  and  _334
REMARK  142  A    between atoms: _334  and  _335
REMARK  143  A    between atoms: _334  and  _337
REMARK  144  A    between atoms: _337  and  _338
REMARK  145  A    between atoms: _341  and  _343
REMARK  146  A    between atoms: _343  and  _344
REMARK  147  A    between atoms: _343  and  _346
REMARK  148  A    between atoms: _346  and  _347
REMARK  149  A    between atoms: _350  and  _352
REMARK  150  A    between atoms: _352  and  _353
REMARK  151  A    between atoms: _352  and  _355
REMARK  152  A    between atoms: _355  and  _356
REMARK  153  A    between atoms: _356  and  _357
REMARK  154  A    between atoms: _359  and  _361
REMARK  155  A    between atoms: _361  and  _362
REMARK  156  A    between atoms: _361  and  _364
REMARK  157  A    between atoms: _364  and  _365
REMARK  158  A    between atoms: _367  and  _369
REMARK  159  A    between atoms: _369  and  _370
REMARK  160  A    between atoms: _369  and  _372
REMARK  161  A    between atoms: _375  and  _377
REMARK  162  A    between atoms: _377  and  _378
REMARK  163  A    between atoms: _377  and  _380
REMARK  164  A    between atoms: _380  and  _381
REMARK  165  A    between atoms: _384  and  _386
REMARK  166  A    between atoms: _386  and  _387
REMARK  167  A    between atoms: _386  and  _389
REMARK  168  A    between atoms: _389  and  _390
REMARK  169  A    between atoms: _395  and  _397
REMARK  170  A    between atoms: _397  and  _398
REMARK  171  A    between atoms: _397  and  _400
REMARK  172  A    between atoms: _400  and  _401
REMARK  173  A    between atoms: _404  and  _406
REMARK  174  A    between atoms: _406  and  _407
REMARK  175  A    between atoms: _406  and  _409
REMARK  176  A    between atoms: _409  and  _410
REMARK  177  A    between atoms: _416  and  _418
REMARK  178  A    between atoms: _418  and  _419
REMARK  179  A    between atoms: _418  and  _421
REMARK  180  A    between atoms: _421  and  _422
REMARK  181  A    between atoms: _422  and  _423
REMARK  182  A    between atoms: _423  and  _424
REMARK  183  A    between atoms: _433  and  _435
REMARK  184  A    between atoms: _435  and  _436
REMARK  185  A    between atoms: _435  and  _438
REMARK  186  A    between atoms: _441  and  _443
REMARK  187  A    between atoms: _443  and  _444
REMARK  188  A    between atoms: _443  and  _446
REMARK  189  A    between atoms: _446  and  _447
REMARK  190  A    between atoms: _449  and  _451
REMARK  191  A    between atoms: _451  and  _452
REMARK  192  A    between atoms: _451  and  _454
REMARK  193  A    between atoms: _454  and  _455
REMARK  194  A    between atoms: _461  and  _463
REMARK  195  A    between atoms: _463  and  _464
REMARK  196  A    between atoms: _463  and  _466
REMARK  197  A    between atoms: _466  and  _467
REMARK  198  A    between atoms: _469  and  _471
REMARK  199  A    between atoms: _471  and  _472
REMARK  200  A    between atoms: _475  and  _476
REMARK  201  A    between atoms: _481  and  _483
REMARK  202  A    between atoms: _483  and  _484
REMARK  203  A    between atoms: _483  and  _486
REMARK  204  A    between atoms: _486  and  _487
REMARK  205  A    between atoms: _493  and  _495
REMARK  206  A    between atoms: _495  and  _496
REMARK  207  A    between atoms: _495  and  _498
REMARK  208  A    between atoms: _498  and  _499
REMARK  209  A    between atoms: _505  and  _507
REMARK  210  A    between atoms: _507  and  _508
REMARK  211  A    between atoms: _507  and  _510
REMARK  212  A    between atoms: _510  and  _511
REMARK  213  A    between atoms: _511  and  _512
REMARK  214  A    between atoms: _512  and  _513
REMARK  215  A    between atoms: _522  and  _524
REMARK  216  A    between atoms: _524  and  _525
REMARK  217  A    between atoms: _527  and  _529
REMARK  218  A    between atoms: _529  and  _530
REMARK  219  A    between atoms: _529  and  _532
REMARK  220  A    between atoms: _532  and  _533
REMARK  221  A    between atoms: _536  and  _538
REMARK  222  A    between atoms: _538  and  _539
REMARK  223  A    between atoms: _541  and  _543
REMARK  224  A    between atoms: _543  and  _544
REMARK  225  A    between atoms: _543  and  _546
REMARK  226  A    between atoms: _546  and  _547
REMARK  227  A    between atoms: _547  and  _548
REMARK  228  A    between atoms: _550  and  _552
REMARK  229  A    between atoms: _552  and  _553
REMARK  230  A    between atoms: _556  and  _558
REMARK  231  A    between atoms: _558  and  _559
REMARK  232  A    between atoms: _558  and  _561
REMARK  233  A    between atoms: _561  and  _562
REMARK  234  A    between atoms: _564  and  _566
REMARK  235  A    between atoms: _566  and  _567
REMARK  236  A    between atoms: _566  and  _569
REMARK  237  A    between atoms: _569  and  _570
REMARK  238  A    between atoms: _573  and  _575
REMARK  239  A    between atoms: _575  and  _576
REMARK  240  A    between atoms: _575  and  _578
REMARK  241  A    between atoms: _578  and  _579
REMARK  242  A    between atoms: _584  and  _586
REMARK  243  A    between atoms: _586  and  _587
REMARK  244  A    between atoms: _586  and  _589
REMARK  245  A    between atoms: _589  and  _590
REMARK  246  A    between atoms: _595  and  _597
REMARK  247  A    between atoms: _597  and  _598
REMARK  248  A    between atoms: _597  and  _600
REMARK  249  A    between atoms: _603  and  _605
REMARK  250  A    between atoms: _605  and  _606
REMARK  251  A    between atoms: _605  and  _608
REMARK  252  A    between atoms: _608  and  _609
REMARK  253  A    between atoms: _614  and  _615
REMARK                            x       y       z     vdW  Elec       q    Type
REMARK                         _______ _______ _______ _____ _____    ______ ____
ROOT
ATOM      1  CA  ALA A   8      21.936  10.200   9.001  0.00  0.00    +0.149 C 
ATOM      2  CB  ALA A   8      20.736  11.169   8.915  0.00  0.00    +0.031 C 
ENDROOT
BRANCH   1   3
ATOM      3  C   ALA A   8      21.912   9.154   7.888  0.00  0.00    +0.241 C 
ATOM      4  O   ALA A   8      22.920   8.514   7.640  0.00  0.00    -0.273 OA
ATOM      5  N   TYR A   9      20.779   8.983   7.212  0.00  0.00    -0.297 N 
ATOM      6  H   TYR A   9      19.950   9.549   7.487  0.00  0.00    +0.150 HD
BRANCH   5   7
ATOM      7  CA  TYR A   9      20.638   8.034   6.095  0.00  0.00    +0.153 C 
BRANCH   7   8
ATOM      8  C   TYR A   9      21.797   8.089   5.058  0.00  0.00    +0.241 C 
ATOM      9  O   TYR A   9      22.321   7.050   4.649  0.00  0.00    -0.273 OA
ATOM     10  N   ASN A  10      22.179   9.281   4.615  0.00  0.00    -0.297 N 
ATOM     11  H   ASN A  10      21.616  10.121   4.860  0.00  0.00    +0.150 HD
BRANCH  10  12
ATOM     12  CA  ASN A  10      23.386   9.437   3.783  0.00  0.00    +0.158 C 
BRANCH  12  13
ATOM     13  C   ASN A  10      24.570   8.571   4.251  0.00  0.00    +0.241 C 
ATOM     14  N   LYS A  11      24.869   8.591   5.556  0.00  0.00    -0.297 N 
ATOM     15  H   LYS A  11      24.284   9.156   6.204  0.00  0.00    +0.150 HD
ATOM     16  O   ASN A  10      25.199   7.877   3.443  0.00  0.00    -0.273 OA
BRANCH  14  17
ATOM     17  CA  LYS A  11      26.009   7.829   6.093  0.00  0.00    +0.149 C 
BRANCH  17  18
ATOM     18  C   LYS A  11      25.861   6.324   5.834  0.00  0.00    +0.241 C 
ATOM     19  N   SER A  12      24.655   5.821   6.067  0.00  0.00    -0.295 N 
ATOM     20  H   SER A  12      23.898   6.458   6.387  0.00  0.00    +0.150 HD
ATOM     21  O   LYS A  11      26.820   5.642   5.418  0.00  0.00    -0.273 OA
BRANCH  19  22
ATOM     22  CA  SER A  12      24.355   4.398   5.889  0.00  0.00    +0.178 C 
BRANCH  22  23
ATOM     23  C   SER A  12      24.501   3.949   4.430  0.00  0.00    +0.243 C 
ATOM     24  O   SER A  12      24.727   2.771   4.160  0.00  0.00    -0.273 OA
ATOM     25  N   LEU A  13      24.360   4.890   3.496  0.00  0.00    -0.298 N 
ATOM     26  H   LEU A  13      24.173   5.871   3.786  0.00  0.00    +0.150 HD
BRANCH  25  27
ATOM     27  CA  LEU A  13      24.463   4.571   2.073  0.00  0.00    +0.137 C 
BRANCH  27  28
ATOM     28  C   LEU A  13      25.881   4.674   1.518  0.00  0.00    +0.227 C 
ATOM     29  O   LEU A  13      26.088   4.484   0.323  0.00  0.00    -0.286 OA
ENDBRANCH  27  28
BRANCH  27  30
ATOM     30  CB  LEU A  13      23.485   5.422   1.241  0.00  0.00    +0.028 C 
BRANCH  30  31
ATOM     31  CG  LEU A  13      22.000   5.194   1.570  0.00  0.00    +0.002 C 
ATOM     32  CD2 LEU A  13      21.555   3.789   1.128  0.00  0.00    +0.000 C 
ATOM     33  CD1 LEU A  13      21.159   6.283   0.940  0.00  0.00    +0.000 C 
ENDBRANCH  30  31
ENDBRANCH  27  30
ENDBRANCH  25  27
ENDBRANCH  22  23
BRANCH  22  34
ATOM     34  CB  SER A  12      22.929   4.112   6.376  0.00  0.00    +0.166 C 
BRANCH  34  35
ATOM     35  OG  SER A  12      22.828   4.281   7.775  0.00  0.00    -0.380 OA
ATOM     36  H   SER A  12      23.450   3.657   8.227  0.00  0.00    +0.211 HD
ENDBRANCH  34  35
ENDBRANCH  22  34
ENDBRANCH  19  22
ENDBRANCH  17  18
BRANCH  17  37
ATOM     37  CB  LYS A  11      26.185   8.085   7.593  0.00  0.00    +0.029 C 
BRANCH  37  38
ATOM     38  CG  LYS A  11      27.413   7.404   8.216  0.00  0.00    +0.000 C 
BRANCH  38  39
ATOM     39  CD  LYS A  11      27.647   7.857   9.658  0.00  0.00    -0.024 C 
BRANCH  39  40
ATOM     40  CE  LYS A  11      28.900   7.206  10.244  0.00  0.00    -0.086 C 
BRANCH  40  41
ATOM     41  NZ  LYS A  11      28.694   5.743  10.432  0.00  0.00    +0.380 N 
ATOM     42  HZ1 LYS A  11      27.898   5.587  11.083  0.00  0.00    -0.089 HD
ATOM     43  HZ2 LYS A  11      29.557   5.321  10.831  0.00  0.00    -0.089 HD
ATOM     44  HZ3 LYS A  11      28.484   5.303   9.513  0.00  0.00    -0.089 HD
ENDBRANCH  40  41
ENDBRANCH  39  40
ENDBRANCH  38  39
ENDBRANCH  37  38
ENDBRANCH  17  37
ENDBRANCH  14  17
ENDBRANCH  12  13
BRANCH  12  45
ATOM     45  CB  ASN A  10      23.805  10.902   3.784  0.00  0.00    +0.114 C 
BRANCH  45  46
ATOM     46  CG  ASN A  10      25.077  11.167   3.017  0.00  0.00    +0.222 C 
ATOM     47  ND2 ASN A  10      26.205  11.222   3.727  0.00  0.00    -0.329 N 
ATOM     48 HD21 ASN A  10      26.184  11.041   4.751  0.00  0.00    +0.145 HD
ATOM     49 HD22 ASN A  10      27.105  11.446   3.257  0.00  0.00    +0.145 HD
ATOM     50  OD1 ASN A  10      25.045  11.371   1.814  0.00  0.00    -0.275 OA
ENDBRANCH  45  46
ENDBRANCH  12  45
ENDBRANCH  10  12
ENDBRANCH   7   8
BRANCH   7  51
ATOM     51  CB  TYR A   9      19.297   8.289   5.421  0.00  0.00    +0.055 C 
BRANCH  51  52
ATOM     52  CG  TYR A   9      18.681   7.163   4.623  0.00  0.00    -0.020 A 
ATOM     53  CD2 TYR A   9      19.181   5.884   4.642  0.00  0.00    -0.001 A 
ATOM     54  CE2 TYR A   9      18.582   4.878   3.934  0.00  0.00    +0.036 A 
ATOM     55  CZ  TYR A   9      17.462   5.135   3.196  0.00  0.00    +0.134 A 
ATOM     56  CE1 TYR A   9      16.918   6.396   3.197  0.00  0.00    +0.036 A 
ATOM     57  CD1 TYR A   9      17.525   7.390   3.907  0.00  0.00    -0.001 A 
BRANCH  55  58
ATOM     58  OH  TYR A   9      16.828   4.140   2.487  0.00  0.00    -0.506 OA
ATOM     59  HH  TYR A   9      17.335   3.295   2.581  0.00  0.00    +0.292 HD
ENDBRANCH  55  58
ENDBRANCH  51  52
ENDBRANCH   7  51
ENDBRANCH   5   7
ENDBRANCH   1   3
BRANCH   1  62
ATOM     60  C   THR A   7      24.200  10.788   9.691  0.00  0.00    +0.243 C 
ATOM     61  O   THR A   7      24.251   9.862  10.509  0.00  0.00    -0.273 OA
ATOM     62  N   ALA A   8      23.171  10.959   8.880  0.00  0.00    -0.297 N 
ATOM     63  H   ALA A   8      23.247  11.667   8.122  0.00  0.00    +0.150 HD
BRANCH  60  64
ATOM     64  CA  THR A   7      25.351  11.798   9.537  0.00  0.00    +0.176 C 
BRANCH  64  66
ATOM     65  C   THR A   6      25.422  12.488   7.170  0.00  0.00    +0.243 C 
ATOM     66  N   THR A   7      25.160  12.775   8.447  0.00  0.00    -0.295 N 
ATOM     67  H   THR A   7      24.807  13.724   8.683  0.00  0.00    +0.150 HD
ATOM     68  O   THR A   6      25.908  11.411   6.786  0.00  0.00    -0.273 OA
BRANCH  65  69
ATOM     69  CA  THR A   6      25.063  13.548   6.143  0.00  0.00    +0.176 C 
BRANCH  69  72
ATOM     70  C   GLY A   5      22.804  14.135   6.814  0.00  0.00    +0.243 C 
ATOM     71  O   GLY A   5      22.446  12.966   6.676  0.00  0.00    -0.273 OA
ATOM     72  N   THR A   6      24.077  14.507   6.634  0.00  0.00    -0.295 N 
ATOM     73  H   THR A   6      24.365  15.484   6.845  0.00  0.00    +0.150 HD
BRANCH  70  74
ATOM     74  CA  GLY A   5      21.787  15.196   7.191  0.00  0.00    +0.176 C 
BRANCH  74  77
ATOM     75  C   SER A   4      23.039  16.739   8.582  0.00  0.00    +0.243 C 
ATOM     76  O   SER A   4      23.146  15.884   9.460  0.00  0.00    -0.273 OA
ATOM     77  N   GLY A   5      22.355  16.515   7.471  0.00  0.00    -0.295 N 
ATOM     78  H   GLY A   5      22.219  17.287   6.788  0.00  0.00    +0.150 HD
BRANCH  75  79
ATOM     79  CA  SER A   4      23.728  18.098   8.718  0.00  0.00    +0.178 C 
BRANCH  79  81
ATOM     80  C   PRO A   3      24.953  18.132   6.621  0.00  0.00    +0.241 C 
ATOM     81  N   SER A   4      24.036  18.697   7.413  0.00  0.00    -0.295 N 
ATOM     82  H   SER A   4      23.542  19.559   7.106  0.00  0.00    +0.150 HD
ATOM     83  O   PRO A   3      25.553  17.098   6.938  0.00  0.00    -0.273 OA
BRANCH  80  87
ATOM     84  C   THR A   2      23.157  17.972   4.169  0.00  0.00    +0.246 C 
ATOM     85  O   THR A   2      23.394  16.772   4.480  0.00  0.00    -0.273 OA
ATOM     86  N   PRO A   3      23.990  18.974   4.467  0.00  0.00    -0.272 N 
ATOM     87  CA  PRO A   3      25.200  18.743   5.241  0.00  0.00    +0.152 C 
ATOM     88  CB  PRO A   3      25.794  20.149   5.374  0.00  0.00    +0.031 C 
ATOM     89  CG  PRO A   3      25.312  20.862   4.214  0.00  0.00    +0.024 C 
ATOM     90  CD  PRO A   3      23.913  20.379   4.021  0.00  0.00    +0.094 C 
BRANCH  84  91
ATOM     91  CA  THR A   2      21.857  18.347   3.467  0.00  0.00    +0.176 C 
BRANCH  91  93
ATOM     92  C   SER A   1      21.639  16.388   2.018  0.00  0.00    +0.241 C 
ATOM     93  N   THR A   2      21.233  17.099   3.058  0.00  0.00    -0.295 N 
ATOM     94  H   THR A   2      20.426  16.747   3.611  0.00  0.00    +0.150 HD
ATOM     95  O   SER A   1      22.424  16.787   1.154  0.00  0.00    -0.274 OA
BRANCH  92  96
ATOM     96  CA  SER A   1      21.076  14.997   1.933  0.00  0.00    +0.174 C 
BRANCH  96  97
ATOM     97  N   SER A   1      20.843  14.711   0.529  0.00  0.00    -0.236 NA
ATOM     98  H   SER A   1      21.664  14.703  -0.110  0.00  0.00    +0.142 HD
ENDBRANCH  96  97
BRANCH  96  99
ATOM     99  CB  SER A   1      22.129  14.061   2.468  0.00  0.00    +0.163 C 
BRANCH  99 100
ATOM    100  OG  SER A   1      22.442  14.358   3.817  0.00  0.00    -0.380 OA
ATOM    101  H   SER A   1      22.783  15.285   3.879  0.00  0.00    +0.211 HD
ENDBRANCH  99 100
ENDBRANCH  96  99
ENDBRANCH  92  96
ENDBRANCH  91  93
BRANCH  91 102
ATOM    102  CB  THR A   2      20.983  19.055   4.503  0.00  0.00    +0.137 C 
ATOM    103  CG2 THR A   2      19.536  19.118   4.049  0.00  0.00    +0.034 C 
BRANCH 102 104
ATOM    104  OG1 THR A   2      21.052  18.324   5.723  0.00  0.00    -0.382 OA
ATOM    105  HG1 THR A   2      20.491  18.770   6.406  0.00  0.00    +0.210 HD
ENDBRANCH 102 104
ENDBRANCH  91 102
ENDBRANCH  84  91
ENDBRANCH  80  87
ENDBRANCH  79  81
BRANCH  79 106
ATOM    106  CB  SER A   4      22.912  19.046   9.596  0.00  0.00    +0.166 C 
BRANCH 106 107
ATOM    107  OG  SER A   4      21.685  19.414   8.995  0.00  0.00    -0.380 OA
ATOM    108  H   SER A   4      21.864  19.870   8.135  0.00  0.00    +0.211 HD
ENDBRANCH 106 107
ENDBRANCH  79 106
ENDBRANCH  75  79
ENDBRANCH  74  77
ENDBRANCH  70  74
ENDBRANCH  69  72
BRANCH  69 109
ATOM    109  CB  THR A   6      26.360  14.194   5.552  0.00  0.00    +0.137 C 
ATOM    110  CG2 THR A   6      26.035  15.067   4.341  0.00  0.00    +0.034 C 
BRANCH 109 111
ATOM    111  OG1 THR A   6      27.036  14.977   6.536  0.00  0.00    -0.382 OA
ATOM    112  HG1 THR A   6      26.436  15.699   6.851  0.00  0.00    +0.210 HD
ENDBRANCH 109 111
ENDBRANCH  69 109
ENDBRANCH  65  69
ENDBRANCH  64  66
BRANCH  64 113
ATOM    113  CB  THR A   7      25.636  12.494  10.873  0.00  0.00    +0.137 C 
ATOM    114  CG2 THR A   7      26.991  13.142  10.833  0.00  0.00    +0.034 C 
BRANCH 113 115
ATOM    115  OG1 THR A   7      24.665  13.524  11.129  0.00  0.00    -0.382 OA
ATOM    116  HG1 THR A   7      23.761  13.122  11.164  0.00  0.00    +0.210 HD
ENDBRANCH 113 115
ENDBRANCH  64 113
ENDBRANCH  60  64
ENDBRANCH   1  62
TORSDOF 49
REMARK  Name = ../refined-set-2016/4dy6/4dy6_pocket.pdb
REMARK  253 active torsions:
REMARK  status: ('A' for Active; 'I' for Inactive)
REMARK    1  A    between atoms: _1  and  _3
REMARK    2  A    between atoms: _3  and  _4
REMARK    3  A    between atoms: _3  and  _6
REMARK    4  A    between atoms: _6  and  _7
REMARK    5  A    between atoms: _7  and  _8
REMARK    6  A    between atoms: _8  and  _9
REMARK    7  A    between atoms: _9  and  _10
REMARK    8  A    between atoms: _14  and  _16
REMARK    9  A    between atoms: _16  and  _17
REMARK   10  A    between atoms: _19  and  _21
REMARK   11  A    between atoms: _21  and  _22
REMARK   12  A    between atoms: _24  and  _26
REMARK   13  A    between atoms: _26  and  _27
REMARK   14  A    between atoms: _26  and  _29
REMARK   15  A    between atoms: _29  and  _30
REMARK   16  A    between atoms: _33  and  _35
REMARK   17  A    between atoms: _35  and  _36
REMARK   18  A    between atoms: _38  and  _40
REMARK   19  A    between atoms: _40  and  _41
REMARK   20  A    between atoms: _40  and  _43
REMARK   21  A    between atoms: _43  and  _44
REMARK   22  A    between atoms: _47  and  _49
REMARK   23  A    between atoms: _49  and  _50
REMARK   24  A    between atoms: _49  and  _52
REMARK   25  A    between atoms: _52  and  _53
REMARK   26  A    between atoms: _59  and  _61
REMARK   27  A    between atoms: _61  and  _62
REMARK   28  A    between atoms: _61  and  _64
REMARK   29  A    between atoms: _64  and  _65
REMARK   30  A    between atoms: _68  and  _70
REMARK   31  A    between atoms: _70  and  _71
REMARK   32  A    between atoms: _70  and  _73
REMARK   33  A    between atoms: _73  and  _74
REMARK   34  A    between atoms: _76  and  _78
REMARK   35  A    between atoms: _78  and  _79
REMARK   36  A    between atoms: _78  and  _81
REMARK   37  A    between atoms: _81  and  _82
REMARK   38  A    between atoms: _87  and  _89
REMARK   39  A    between atoms: _89  and  _90
REMARK   40  A    between atoms: _89  and  _92
REMARK   41  A    between atoms: _92  and  _93
REMARK   42  A    between atoms: _96  and  _98
REMARK   43  A    between atoms: _98  and  _99
REMARK   44  A    between atoms: _101  and  _103
REMARK   45  A    between atoms: _103  and  _104
REMARK   46  A    between atoms: _103  and  _106
REMARK   47  A    between atoms: _106  and  _107
REMARK   48  A    between atoms: _112  and  _114
REMARK   49  A    between atoms: _114  and  _115
REMARK   50  A    between atoms: _114  and  _117
REMARK   51  A    between atoms: _117  and  _118
REMARK   52  A    between atoms: _121  and  _123
REMARK   53  A    between atoms: _123  and  _124
REMARK   54  A    between atoms: _126  and  _128
REMARK   55  A    between atoms: _128  and  _129
REMARK   56  A    between atoms: _128  and  _131
REMARK   57  A    between atoms: _131  and  _132
REMARK   58  A    between atoms: _138  and  _140
REMARK   59  A    between atoms: _140  and  _141
REMARK   60  A    between atoms: _140  and  _143
REMARK   61  A    between atoms: _143  and  _144
REMARK   62  A    between atoms: _149  and  _150
REMARK   63  A    between atoms: _152  and  _154
REMARK   64  A    between atoms: _154  and  _155
REMARK   65  A    between atoms: _158  and  _160
REMARK   66  A    between atoms: _160  and  _161
REMARK   67  A    between atoms: _160  and  _163
REMARK   68  A    between atoms: _163  and  _164
REMARK   69  A    between atoms: _167  and  _169
REMARK   70  A    between atoms: _169  and  _170
REMARK   71  A    between atoms: _169  and  _172
REMARK   72  A    between atoms: _172  and  _173
REMARK   73  A    between atoms: _178  and  _180
REMARK   74  A    between atoms: _180  and  _181
REMARK   75  A    between atoms: _180  and  _183
REMARK   76  A    between atoms: _183  and  _184
REMARK   77  A    between atoms: _184  and  _185
REMARK   78  A    between atoms: _188  and  _190
REMARK   79  A    between atoms: _190  and  _191
REMARK   80  A    between atoms: _190  and  _193
REMARK   81  A    between atoms: _193  and  _194
REMARK   82  A    between atoms: _196  and  _198
REMARK   83  A    between atoms: _198  and  _199
REMARK   84  A    between atoms: _198  and  _201
REMARK   85  A    between atoms: _201  and  _202
REMARK   86  A    between atoms: _205  and  _207
REMARK   87  A    between atoms: _207  and  _208
REMARK   88  A    between atoms: _207  and  _210
REMARK   89  A    between atoms: _210  and  _211
REMARK   90  A    between atoms: _211  and  _212
REMARK   91  A    between atoms: _212  and  _213
REMARK   92  A    between atoms: _213  and  _214
REMARK   93  A    between atoms: _218  and  _220
REMARK   94  A    between atoms: _220  and  _221
REMARK   95  A    between atoms: _220  and  _223
REMARK   96  A    between atoms: _225  and  _227
REMARK   97  A    between atoms: _227  and  _228
REMARK   98  A    between atoms: _227  and  _230
REMARK   99  A    between atoms: _230  and  _231
REMARK  100  A    between atoms: _233  and  _235
REMARK  101  A    between atoms: _235  and  _236
REMARK  102  A    between atoms: _235  and  _238
REMARK  103  A    between atoms: _238  and  _239
REMARK  104  A    between atoms: _243  and  _244
REMARK  105  A    between atoms: _249  and  _251
REMARK  106  A    between atoms: _251  and  _252
REMARK  107  A    between atoms: _251  and  _254
REMARK  108  A    between atoms: _254  and  _255
REMARK  109  A    between atoms: _257  and  _259
REMARK  110  A    between atoms: _259  and  _260
REMARK  111  A    between atoms: _262  and  _264
REMARK  112  A    between atoms: _264  and  _265
REMARK  113  A    between atoms: _264  and  _267
REMARK  114  A    between atoms: _267  and  _268
REMARK  115  A    between atoms: _271  and  _273
REMARK  116  A    between atoms: _273  and  _274
REMARK  117  A    between atoms: _273  and  _276
REMARK  118  A    between atoms: _276  and  _277
REMARK  119  A    between atoms: _280  and  _282
REMARK  120  A    between atoms: _282  and  _283
REMARK  121  A    between atoms: _286  and  _288
REMARK  122  A    between atoms: _288  and  _289
REMARK  123  A    between atoms: _288  and  _291
REMARK  124  A    between atoms: _291  and  _292
REMARK  125  A    between atoms: _297  and  _298
REMARK  126  A    between atoms: _300  and  _302
REMARK  127  A    between atoms: _302  and  _303
REMARK  128  A    between atoms: _302  and  _305
REMARK  129  A    between atoms: _305  and  _306
REMARK  130  A    between atoms: _311  and  _313
REMARK  131  A    between atoms: _313  and  _314
REMARK  132  A    between atoms: _313  and  _316
REMARK  133  A    between atoms: _316  and  _317
REMARK  134  A    between atoms: _317  and  _318
REMARK  135  A    between atoms: _318  and  _319
REMARK  136  A    between atoms: _319  and  _320
REMARK  137  A    between atoms: _324  and  _326
REMARK  138  A    between atoms: _326  and  _327
REMARK  139  A    between atoms: _326  and  _329
REMARK  140  A    between atoms: _329  and  _330
REMARK  141  A    between atoms: _332  and  _334
REMARK  142  A    between atoms: _334  and  _335
REMARK  143  A    between atoms: _334  and  _337
REMARK  144  A    between atoms: _337  and  _338
REMARK  145  A    between atoms: _341  and  _343
REMARK  146  A    between atoms: _343  and  _344
REMARK  147  A    between atoms: _343  and  _346
REMARK  148  A    between atoms: _346  and  _347
REMARK  149  A    between atoms: _350  and  _352
REMARK  150  A    between atoms: _352  and  _353
REMARK  151  A    between atoms: _352  and  _355
REMARK  152  A    between atoms: _355  and  _356
REMARK  153  A    between atoms: _356  and  _357
REMARK  154  A    between atoms: _359  and  _361
REMARK  155  A    between atoms: _361  and  _362
REMARK  156  A    between atoms: _361  and  _364
REMARK  157  A    between atoms: _364  and  _365
REMARK  158  A    between atoms: _367  and  _369
REMARK  159  A    between atoms: _369  and  _370
REMARK  160  A    between atoms: _369  and  _372
REMARK  161  A    between atoms: _375  and  _377
REMARK  162  A    between atoms: _377  and  _378
REMARK  163  A    between atoms: _377  and  _380
REMARK  164  A    between atoms: _380  and  _381
REMARK  165  A    between atoms: _384  and  _386
REMARK  166  A    between atoms: _386  and  _387
REMARK  167  A    between atoms: _386  and  _389
REMARK  168  A    between atoms: _389  and  _390
REMARK  169  A    between atoms: _395  and  _397
REMARK  170  A    between atoms: _397  and  _398
REMARK  171  A    between atoms: _397  and  _400
REMARK  172  A    between atoms: _400  and  _401
REMARK  173  A    between atoms: _404  and  _406
REMARK  174  A    between atoms: _406  and  _407
REMARK  175  A    between atoms: _406  and  _409
REMARK  176  A    between atoms: _409  and  _410
REMARK  177  A    between atoms: _416  and  _418
REMARK  178  A    between atoms: _418  and  _419
REMARK  179  A    between atoms: _418  and  _421
REMARK  180  A    between atoms: _421  and  _422
REMARK  181  A    between atoms: _422  and  _423
REMARK  182  A    between atoms: _423  and  _424
REMARK  183  A    between atoms: _433  and  _435
REMARK  184  A    between atoms: _435  and  _436
REMARK  185  A    between atoms: _435  and  _438
REMARK  186  A    between atoms: _441  and  _443
REMARK  187  A    between atoms: _443  and  _444
REMARK  188  A    between atoms: _443  and  _446
REMARK  189  A    between atoms: _446  and  _447
REMARK  190  A    between atoms: _449  and  _451
REMARK  191  A    between atoms: _451  and  _452
REMARK  192  A    between atoms: _451  and  _454
REMARK  193  A    between atoms: _454  and  _455
REMARK  194  A    between atoms: _461  and  _463
REMARK  195  A    between atoms: _463  and  _464
REMARK  196  A    between atoms: _463  and  _466
REMARK  197  A    between atoms: _466  and  _467
REMARK  198  A    between atoms: _469  and  _471
REMARK  199  A    between atoms: _471  and  _472
REMARK  200  A    between atoms: _475  and  _476
REMARK  201  A    between atoms: _481  and  _483
REMARK  202  A    between atoms: _483  and  _484
REMARK  203  A    between atoms: _483  and  _486
REMARK  204  A    between atoms: _486  and  _487
REMARK  205  A    between atoms: _493  and  _495
REMARK  206  A    between atoms: _495  and  _496
REMARK  207  A    between atoms: _495  and  _498
REMARK  208  A    between atoms: _498  and  _499
REMARK  209  A    between atoms: _505  and  _507
REMARK  210  A    between atoms: _507  and  _508
REMARK  211  A    between atoms: _507  and  _510
REMARK  212  A    between atoms: _510  and  _511
REMARK  213  A    between atoms: _511  and  _512
REMARK  214  A    between atoms: _512  and  _513
REMARK  215  A    between atoms: _522  and  _524
REMARK  216  A    between atoms: _524  and  _525
REMARK  217  A    between atoms: _527  and  _529
REMARK  218  A    between atoms: _529  and  _530
REMARK  219  A    between atoms: _529  and  _532
REMARK  220  A    between atoms: _532  and  _533
REMARK  221  A    between atoms: _536  and  _538
REMARK  222  A    between atoms: _538  and  _539
REMARK  223  A    between atoms: _541  and  _543
REMARK  224  A    between atoms: _543  and  _544
REMARK  225  A    between atoms: _543  and  _546
REMARK  226  A    between atoms: _546  and  _547
REMARK  227  A    between atoms: _547  and  _548
REMARK  228  A    between atoms: _550  and  _552
REMARK  229  A    between atoms: _552  and  _553
REMARK  230  A    between atoms: _556  and  _558
REMARK  231  A    between atoms: _558  and  _559
REMARK  232  A    between atoms: _558  and  _561
REMARK  233  A    between atoms: _561  and  _562
REMARK  234  A    between atoms: _564  and  _566
REMARK  235  A    between atoms: _566  and  _567
REMARK  236  A    between atoms: _566  and  _569
REMARK  237  A    between atoms: _569  and  _570
REMARK  238  A    between atoms: _573  and  _575
REMARK  239  A    between atoms: _575  and  _576
REMARK  240  A    between atoms: _575  and  _578
REMARK  241  A    between atoms: _578  and  _579
REMARK  242  A    between atoms: _584  and  _586
REMARK  243  A    between atoms: _586  and  _587
REMARK  244  A    between atoms: _586  and  _589
REMARK  245  A    between atoms: _589  and  _590
REMARK  246  A    between atoms: _595  and  _597
REMARK  247  A    between atoms: _597  and  _598
REMARK  248  A    between atoms: _597  and  _600
REMARK  249  A    between atoms: _603  and  _605
REMARK  250  A    between atoms: _605  and  _606
REMARK  251  A    between atoms: _605  and  _608
REMARK  252  A    between atoms: _608  and  _609
REMARK  253  A    between atoms: _614  and  _615
REMARK                            x       y       z     vdW  Elec       q    Type
REMARK                         _______ _______ _______ _____ _____    ______ ____
ROOT
ATOM      1  CA  LEU A   1      30.192  13.483   6.177  0.00  0.00    +0.133 C 
ENDROOT
BRANCH   1   2
ATOM      2  N   LEU A   1      30.676  12.533   5.176  0.00  0.00    -0.239 NA
ATOM      3  H   LEU A   1      31.581  12.049   5.344  0.00  0.00    +0.142 HD
ENDBRANCH   1   2
BRANCH   1   4
ATOM      4  C   LEU A   1      30.736  14.883   5.876  0.00  0.00    +0.224 C 
ATOM      5  O   LEU A   1      31.942  15.081   5.786  0.00  0.00    -0.287 OA
ENDBRANCH   1   4
BRANCH   1   6
ATOM      6  CB  LEU A   1      30.612  13.043   7.578  0.00  0.00    +0.025 C 
BRANCH   6   7
ATOM      7  CG  LEU A   1      30.359  11.568   7.941  0.00  0.00    +0.002 C 
ATOM      8  CD2 LEU A   1      30.837  11.237   9.376  0.00  0.00    +0.000 C 
ATOM      9  CD1 LEU A   1      28.889  11.196   7.706  0.00  0.00    +0.000 C 
ENDBRANCH   6   7
ENDBRANCH   1   6
TORSDOF 4
REMARK  Name = ../refined-set-2016/4dy6/4dy6_pocket.pdb
REMARK  253 active torsions:
REMARK  status: ('A' for Active; 'I' for Inactive)
REMARK    1  A    between atoms: _1  and  _3
REMARK    2  A    between atoms: _3  and  _4
REMARK    3  A    between atoms: _3  and  _6
REMARK    4  A    between atoms: _6  and  _7
REMARK    5  A    between atoms: _7  and  _8
REMARK    6  A    between atoms: _8  and  _9
REMARK    7  A    between atoms: _9  and  _10
REMARK    8  A    between atoms: _14  and  _16
REMARK    9  A    between atoms: _16  and  _17
REMARK   10  A    between atoms: _19  and  _21
REMARK   11  A    between atoms: _21  and  _22
REMARK   12  A    between atoms: _24  and  _26
REMARK   13  A    between atoms: _26  and  _27
REMARK   14  A    between atoms: _26  and  _29
REMARK   15  A    between atoms: _29  and  _30
REMARK   16  A    between atoms: _33  and  _35
REMARK   17  A    between atoms: _35  and  _36
REMARK   18  A    between atoms: _38  and  _40
REMARK   19  A    between atoms: _40  and  _41
REMARK   20  A    between atoms: _40  and  _43
REMARK   21  A    between atoms: _43  and  _44
REMARK   22  A    between atoms: _47  and  _49
REMARK   23  A    between atoms: _49  and  _50
REMARK   24  A    between atoms: _49  and  _52
REMARK   25  A    between atoms: _52  and  _53
REMARK   26  A    between atoms: _59  and  _61
REMARK   27  A    between atoms: _61  and  _62
REMARK   28  A    between atoms: _61  and  _64
REMARK   29  A    between atoms: _64  and  _65
REMARK   30  A    between atoms: _68  and  _70
REMARK   31  A    between atoms: _70  and  _71
REMARK   32  A    between atoms: _70  and  _73
REMARK   33  A    between atoms: _73  and  _74
REMARK   34  A    between atoms: _76  and  _78
REMARK   35  A    between atoms: _78  and  _79
REMARK   36  A    between atoms: _78  and  _81
REMARK   37  A    between atoms: _81  and  _82
REMARK   38  A    between atoms: _87  and  _89
REMARK   39  A    between atoms: _89  and  _90
REMARK   40  A    between atoms: _89  and  _92
REMARK   41  A    between atoms: _92  and  _93
REMARK   42  A    between atoms: _96  and  _98
REMARK   43  A    between atoms: _98  and  _99
REMARK   44  A    between atoms: _101  and  _103
REMARK   45  A    between atoms: _103  and  _104
REMARK   46  A    between atoms: _103  and  _106
REMARK   47  A    between atoms: _106  and  _107
REMARK   48  A    between atoms: _112  and  _114
REMARK   49  A    between atoms: _114  and  _115
REMARK   50  A    between atoms: _114  and  _117
REMARK   51  A    between atoms: _117  and  _118
REMARK   52  A    between atoms: _121  and  _123
REMARK   53  A    between atoms: _123  and  _124
REMARK   54  A    between atoms: _126  and  _128
REMARK   55  A    between atoms: _128  and  _129
REMARK   56  A    between atoms: _128  and  _131
REMARK   57  A    between atoms: _131  and  _132
REMARK   58  A    between atoms: _138  and  _140
REMARK   59  A    between atoms: _140  and  _141
REMARK   60  A    between atoms: _140  and  _143
REMARK   61  A    between atoms: _143  and  _144
REMARK   62  A    between atoms: _149  and  _150
REMARK   63  A    between atoms: _152  and  _154
REMARK   64  A    between atoms: _154  and  _155
REMARK   65  A    between atoms: _158  and  _160
REMARK   66  A    between atoms: _160  and  _161
REMARK   67  A    between atoms: _160  and  _163
REMARK   68  A    between atoms: _163  and  _164
REMARK   69  A    between atoms: _167  and  _169
REMARK   70  A    between atoms: _169  and  _170
REMARK   71  A    between atoms: _169  and  _172
REMARK   72  A    between atoms: _172  and  _173
REMARK   73  A    between atoms: _178  and  _180
REMARK   74  A    between atoms: _180  and  _181
REMARK   75  A    between atoms: _180  and  _183
REMARK   76  A    between atoms: _183  and  _184
REMARK   77  A    between atoms: _184  and  _185
REMARK   78  A    between atoms: _188  and  _190
REMARK   79  A    between atoms: _190  and  _191
REMARK   80  A    between atoms: _190  and  _193
REMARK   81  A    between atoms: _193  and  _194
REMARK   82  A    between atoms: _196  and  _198
REMARK   83  A    between atoms: _198  and  _199
REMARK   84  A    between atoms: _198  and  _201
REMARK   85  A    between atoms: _201  and  _202
REMARK   86  A    between atoms: _205  and  _207
REMARK   87  A    between atoms: _207  and  _208
REMARK   88  A    between atoms: _207  and  _210
REMARK   89  A    between atoms: _210  and  _211
REMARK   90  A    between atoms: _211  and  _212
REMARK   91  A    between atoms: _212  and  _213
REMARK   92  A    between atoms: _213  and  _214
REMARK   93  A    between atoms: _218  and  _220
REMARK   94  A    between atoms: _220  and  _221
REMARK   95  A    between atoms: _220  and  _223
REMARK   96  A    between atoms: _225  and  _227
REMARK   97  A    between atoms: _227  and  _228
REMARK   98  A    between atoms: _227  and  _230
REMARK   99  A    between atoms: _230  and  _231
REMARK  100  A    between atoms: _233  and  _235
REMARK  101  A    between atoms: _235  and  _236
REMARK  102  A    between atoms: _235  and  _238
REMARK  103  A    between atoms: _238  and  _239
REMARK  104  A    between atoms: _243  and  _244
REMARK  105  A    between atoms: _249  and  _251
REMARK  106  A    between atoms: _251  and  _252
REMARK  107  A    between atoms: _251  and  _254
REMARK  108  A    between atoms: _254  and  _255
REMARK  109  A    between atoms: _257  and  _259
REMARK  110  A    between atoms: _259  and  _260
REMARK  111  A    between atoms: _262  and  _264
REMARK  112  A    between atoms: _264  and  _265
REMARK  113  A    between atoms: _264  and  _267
REMARK  114  A    between atoms: _267  and  _268
REMARK  115  A    between atoms: _271  and  _273
REMARK  116  A    between atoms: _273  and  _274
REMARK  117  A    between atoms: _273  and  _276
REMARK  118  A    between atoms: _276  and  _277
REMARK  119  A    between atoms: _280  and  _282
REMARK  120  A    between atoms: _282  and  _283
REMARK  121  A    between atoms: _286  and  _288
REMARK  122  A    between atoms: _288  and  _289
REMARK  123  A    between atoms: _288  and  _291
REMARK  124  A    between atoms: _291  and  _292
REMARK  125  A    between atoms: _297  and  _298
REMARK  126  A    between atoms: _300  and  _302
REMARK  127  A    between atoms: _302  and  _303
REMARK  128  A    between atoms: _302  and  _305
REMARK  129  A    between atoms: _305  and  _306
REMARK  130  A    between atoms: _311  and  _313
REMARK  131  A    between atoms: _313  and  _314
REMARK  132  A    between atoms: _313  and  _316
REMARK  133  A    between atoms: _316  and  _317
REMARK  134  A    between atoms: _317  and  _318
REMARK  135  A    between atoms: _318  and  _319
REMARK  136  A    between atoms: _319  and  _320
REMARK  137  A    between atoms: _324  and  _326
REMARK  138  A    between atoms: _326  and  _327
REMARK  139  A    between atoms: _326  and  _329
REMARK  140  A    between atoms: _329  and  _330
REMARK  141  A    between atoms: _332  and  _334
REMARK  142  A    between atoms: _334  and  _335
REMARK  143  A    between atoms: _334  and  _337
REMARK  144  A    between atoms: _337  and  _338
REMARK  145  A    between atoms: _341  and  _343
REMARK  146  A    between atoms: _343  and  _344
REMARK  147  A    between atoms: _343  and  _346
REMARK  148  A    between atoms: _346  and  _347
REMARK  149  A    between atoms: _350  and  _352
REMARK  150  A    between atoms: _352  and  _353
REMARK  151  A    between atoms: _352  and  _355
REMARK  152  A    between atoms: _355  and  _356
REMARK  153  A    between atoms: _356  and  _357
REMARK  154  A    between atoms: _359  and  _361
REMARK  155  A    between atoms: _361  and  _362
REMARK  156  A    between atoms: _361  and  _364
REMARK  157  A    between atoms: _364  and  _365
REMARK  158  A    between atoms: _367  and  _369
REMARK  159  A    between atoms: _369  and  _370
REMARK  160  A    between atoms: _369  and  _372
REMARK  161  A    between atoms: _375  and  _377
REMARK  162  A    between atoms: _377  and  _378
REMARK  163  A    between atoms: _377  and  _380
REMARK  164  A    between atoms: _380  and  _381
REMARK  165  A    between atoms: _384  and  _386
REMARK  166  A    between atoms: _386  and  _387
REMARK  167  A    between atoms: _386  and  _389
REMARK  168  A    between atoms: _389  and  _390
REMARK  169  A    between atoms: _395  and  _397
REMARK  170  A    between atoms: _397  and  _398
REMARK  171  A    between atoms: _397  and  _400
REMARK  172  A    between atoms: _400  and  _401
REMARK  173  A    between atoms: _404  and  _406
REMARK  174  A    between atoms: _406  and  _407
REMARK  175  A    between atoms: _406  and  _409
REMARK  176  A    between atoms: _409  and  _410
REMARK  177  A    between atoms: _416  and  _418
REMARK  178  A    between atoms: _418  and  _419
REMARK  179  A    between atoms: _418  and  _421
REMARK  180  A    between atoms: _421  and  _422
REMARK  181  A    between atoms: _422  and  _423
REMARK  182  A    between atoms: _423  and  _424
REMARK  183  A    between atoms: _433  and  _435
REMARK  184  A    between atoms: _435  and  _436
REMARK  185  A    between atoms: _435  and  _438
REMARK  186  A    between atoms: _441  and  _443
REMARK  187  A    between atoms: _443  and  _444
REMARK  188  A    between atoms: _443  and  _446
REMARK  189  A    between atoms: _446  and  _447
REMARK  190  A    between atoms: _449  and  _451
REMARK  191  A    between atoms: _451  and  _452
REMARK  192  A    between atoms: _451  and  _454
REMARK  193  A    between atoms: _454  and  _455
REMARK  194  A    between atoms: _461  and  _463
REMARK  195  A    between atoms: _463  and  _464
REMARK  196  A    between atoms: _463  and  _466
REMARK  197  A    between atoms: _466  and  _467
REMARK  198  A    between atoms: _469  and  _471
REMARK  199  A    between atoms: _471  and  _472
REMARK  200  A    between atoms: _475  and  _476
REMARK  201  A    between atoms: _481  and  _483
REMARK  202  A    between atoms: _483  and  _484
REMARK  203  A    between atoms: _483  and  _486
REMARK  204  A    between atoms: _486  and  _487
REMARK  205  A    between atoms: _493  and  _495
REMARK  206  A    between atoms: _495  and  _496
REMARK  207  A    between atoms: _495  and  _498
REMARK  208  A    between atoms: _498  and  _499
REMARK  209  A    between atoms: _505  and  _507
REMARK  210  A    between atoms: _507  and  _508
REMARK  211  A    between atoms: _507  and  _510
REMARK  212  A    between atoms: _510  and  _511
REMARK  213  A    between atoms: _511  and  _512
REMARK  214  A    between atoms: _512  and  _513
REMARK  215  A    between atoms: _522  and  _524
REMARK  216  A    between atoms: _524  and  _525
REMARK  217  A    between atoms: _527  and  _529
REMARK  218  A    between atoms: _529  and  _530
REMARK  219  A    between atoms: _529  and  _532
REMARK  220  A    between atoms: _532  and  _533
REMARK  221  A    between atoms: _536  and  _538
REMARK  222  A    between atoms: _538  and  _539
REMARK  223  A    between atoms: _541  and  _543
REMARK  224  A    between atoms: _543  and  _544
REMARK  225  A    between atoms: _543  and  _546
REMARK  226  A    between atoms: _546  and  _547
REMARK  227  A    between atoms: _547  and  _548
REMARK  228  A    between atoms: _550  and  _552
REMARK  229  A    between atoms: _552  and  _553
REMARK  230  A    between atoms: _556  and  _558
REMARK  231  A    between atoms: _558  and  _559
REMARK  232  A    between atoms: _558  and  _561
REMARK  233  A    between atoms: _561  and  _562
REMARK  234  A    between atoms: _564  and  _566
REMARK  235  A    between atoms: _566  and  _567
REMARK  236  A    between atoms: _566  and  _569
REMARK  237  A    between atoms: _569  and  _570
REMARK  238  A    between atoms: _573  and  _575
REMARK  239  A    between atoms: _575  and  _576
REMARK  240  A    between atoms: _575  and  _578
REMARK  241  A    between atoms: _578  and  _579
REMARK  242  A    between atoms: _584  and  _586
REMARK  243  A    between atoms: _586  and  _587
REMARK  244  A    between atoms: _586  and  _589
REMARK  245  A    between atoms: _589  and  _590
REMARK  246  A    between atoms: _595  and  _597
REMARK  247  A    between atoms: _597  and  _598
REMARK  248  A    between atoms: _597  and  _600
REMARK  249  A    between atoms: _603  and  _605
REMARK  250  A    between atoms: _605  and  _606
REMARK  251  A    between atoms: _605  and  _608
REMARK  252  A    between atoms: _608  and  _609
REMARK  253  A    between atoms: _614  and  _615
REMARK                            x       y       z     vdW  Elec       q    Type
REMARK                         _______ _______ _______ _____ _____    ______ ____
ROOT
ATOM      1  CA  MET A   1      20.573   2.887  -3.105  0.00  0.00    +0.134 C 
ENDROOT
BRANCH   1   2
ATOM      2  N   MET A   1      21.013   4.079  -3.804  0.00  0.00    -0.239 NA
ATOM      3  H   MET A   1      20.394   4.490  -4.532  0.00  0.00    +0.142 HD
ENDBRANCH   1   2
BRANCH   1   4
ATOM      4  C   MET A   1      20.599   1.698  -4.080  0.00  0.00    +0.224 C 
ATOM      5  O   MET A   1      19.831   1.664  -5.033  0.00  0.00    -0.287 OA
ENDBRANCH   1   4
BRANCH   1   6
ATOM      6  CB  MET A   1      19.165   3.096  -2.557  0.00  0.00    +0.037 C 
BRANCH   6   7
ATOM      7  CG  MET A   1      18.954   4.386  -1.752  0.00  0.00    +0.059 C 
BRANCH   7   8
ATOM      8  SD  MET A   1      17.222   4.504  -1.228  0.00  0.00    -0.139 S 
ATOM      9  CE  MET A   1      17.210   6.133  -0.503  0.00  0.00    +0.069 C 
ENDBRANCH   7   8
ENDBRANCH   6   7
ENDBRANCH   1   6
TORSDOF 5
REMARK  Name = ../refined-set-2016/4dy6/4dy6_pocket.pdb
REMARK  253 active torsions:
REMARK  status: ('A' for Active; 'I' for Inactive)
REMARK    1  A    between atoms: _1  and  _3
REMARK    2  A    between atoms: _3  and  _4
REMARK    3  A    between atoms: _3  and  _6
REMARK    4  A    between atoms: _6  and  _7
REMARK    5  A    between atoms: _7  and  _8
REMARK    6  A    between atoms: _8  and  _9
REMARK    7  A    between atoms: _9  and  _10
REMARK    8  A    between atoms: _14  and  _16
REMARK    9  A    between atoms: _16  and  _17
REMARK   10  A    between atoms: _19  and  _21
REMARK   11  A    between atoms: _21  and  _22
REMARK   12  A    between atoms: _24  and  _26
REMARK   13  A    between atoms: _26  and  _27
REMARK   14  A    between atoms: _26  and  _29
REMARK   15  A    between atoms: _29  and  _30
REMARK   16  A    between atoms: _33  and  _35
REMARK   17  A    between atoms: _35  and  _36
REMARK   18  A    between atoms: _38  and  _40
REMARK   19  A    between atoms: _40  and  _41
REMARK   20  A    between atoms: _40  and  _43
REMARK   21  A    between atoms: _43  and  _44
REMARK   22  A    between atoms: _47  and  _49
REMARK   23  A    between atoms: _49  and  _50
REMARK   24  A    between atoms: _49  and  _52
REMARK   25  A    between atoms: _52  and  _53
REMARK   26  A    between atoms: _59  and  _61
REMARK   27  A    between atoms: _61  and  _62
REMARK   28  A    between atoms: _61  and  _64
REMARK   29  A    between atoms: _64  and  _65
REMARK   30  A    between atoms: _68  and  _70
REMARK   31  A    between atoms: _70  and  _71
REMARK   32  A    between atoms: _70  and  _73
REMARK   33  A    between atoms: _73  and  _74
REMARK   34  A    between atoms: _76  and  _78
REMARK   35  A    between atoms: _78  and  _79
REMARK   36  A    between atoms: _78  and  _81
REMARK   37  A    between atoms: _81  and  _82
REMARK   38  A    between atoms: _87  and  _89
REMARK   39  A    between atoms: _89  and  _90
REMARK   40  A    between atoms: _89  and  _92
REMARK   41  A    between atoms: _92  and  _93
REMARK   42  A    between atoms: _96  and  _98
REMARK   43  A    between atoms: _98  and  _99
REMARK   44  A    between atoms: _101  and  _103
REMARK   45  A    between atoms: _103  and  _104
REMARK   46  A    between atoms: _103  and  _106
REMARK   47  A    between atoms: _106  and  _107
REMARK   48  A    between atoms: _112  and  _114
REMARK   49  A    between atoms: _114  and  _115
REMARK   50  A    between atoms: _114  and  _117
REMARK   51  A    between atoms: _117  and  _118
REMARK   52  A    between atoms: _121  and  _123
REMARK   53  A    between atoms: _123  and  _124
REMARK   54  A    between atoms: _126  and  _128
REMARK   55  A    between atoms: _128  and  _129
REMARK   56  A    between atoms: _128  and  _131
REMARK   57  A    between atoms: _131  and  _132
REMARK   58  A    between atoms: _138  and  _140
REMARK   59  A    between atoms: _140  and  _141
REMARK   60  A    between atoms: _140  and  _143
REMARK   61  A    between atoms: _143  and  _144
REMARK   62  A    between atoms: _149  and  _150
REMARK   63  A    between atoms: _152  and  _154
REMARK   64  A    between atoms: _154  and  _155
REMARK   65  A    between atoms: _158  and  _160
REMARK   66  A    between atoms: _160  and  _161
REMARK   67  A    between atoms: _160  and  _163
REMARK   68  A    between atoms: _163  and  _164
REMARK   69  A    between atoms: _167  and  _169
REMARK   70  A    between atoms: _169  and  _170
REMARK   71  A    between atoms: _169  and  _172
REMARK   72  A    between atoms: _172  and  _173
REMARK   73  A    between atoms: _178  and  _180
REMARK   74  A    between atoms: _180  and  _181
REMARK   75  A    between atoms: _180  and  _183
REMARK   76  A    between atoms: _183  and  _184
REMARK   77  A    between atoms: _184  and  _185
REMARK   78  A    between atoms: _188  and  _190
REMARK   79  A    between atoms: _190  and  _191
REMARK   80  A    between atoms: _190  and  _193
REMARK   81  A    between atoms: _193  and  _194
REMARK   82  A    between atoms: _196  and  _198
REMARK   83  A    between atoms: _198  and  _199
REMARK   84  A    between atoms: _198  and  _201
REMARK   85  A    between atoms: _201  and  _202
REMARK   86  A    between atoms: _205  and  _207
REMARK   87  A    between atoms: _207  and  _208
REMARK   88  A    between atoms: _207  and  _210
REMARK   89  A    between atoms: _210  and  _211
REMARK   90  A    between atoms: _211  and  _212
REMARK   91  A    between atoms: _212  and  _213
REMARK   92  A    between atoms: _213  and  _214
REMARK   93  A    between atoms: _218  and  _220
REMARK   94  A    between atoms: _220  and  _221
REMARK   95  A    between atoms: _220  and  _223
REMARK   96  A    between atoms: _225  and  _227
REMARK   97  A    between atoms: _227  and  _228
REMARK   98  A    between atoms: _227  and  _230
REMARK   99  A    between atoms: _230  and  _231
REMARK  100  A    between atoms: _233  and  _235
REMARK  101  A    between atoms: _235  and  _236
REMARK  102  A    between atoms: _235  and  _238
REMARK  103  A    between atoms: _238  and  _239
REMARK  104  A    between atoms: _243  and  _244
REMARK  105  A    between atoms: _249  and  _251
REMARK  106  A    between atoms: _251  and  _252
REMARK  107  A    between atoms: _251  and  _254
REMARK  108  A    between atoms: _254  and  _255
REMARK  109  A    between atoms: _257  and  _259
REMARK  110  A    between atoms: _259  and  _260
REMARK  111  A    between atoms: _262  and  _264
REMARK  112  A    between atoms: _264  and  _265
REMARK  113  A    between atoms: _264  and  _267
REMARK  114  A    between atoms: _267  and  _268
REMARK  115  A    between atoms: _271  and  _273
REMARK  116  A    between atoms: _273  and  _274
REMARK  117  A    between atoms: _273  and  _276
REMARK  118  A    between atoms: _276  and  _277
REMARK  119  A    between atoms: _280  and  _282
REMARK  120  A    between atoms: _282  and  _283
REMARK  121  A    between atoms: _286  and  _288
REMARK  122  A    between atoms: _288  and  _289
REMARK  123  A    between atoms: _288  and  _291
REMARK  124  A    between atoms: _291  and  _292
REMARK  125  A    between atoms: _297  and  _298
REMARK  126  A    between atoms: _300  and  _302
REMARK  127  A    between atoms: _302  and  _303
REMARK  128  A    between atoms: _302  and  _305
REMARK  129  A    between atoms: _305  and  _306
REMARK  130  A    between atoms: _311  and  _313
REMARK  131  A    between atoms: _313  and  _314
REMARK  132  A    between atoms: _313  and  _316
REMARK  133  A    between atoms: _316  and  _317
REMARK  134  A    between atoms: _317  and  _318
REMARK  135  A    between atoms: _318  and  _319
REMARK  136  A    between atoms: _319  and  _320
REMARK  137  A    between atoms: _324  and  _326
REMARK  138  A    between atoms: _326  and  _327
REMARK  139  A    between atoms: _326  and  _329
REMARK  140  A    between atoms: _329  and  _330
REMARK  141  A    between atoms: _332  and  _334
REMARK  142  A    between atoms: _334  and  _335
REMARK  143  A    between atoms: _334  and  _337
REMARK  144  A    between atoms: _337  and  _338
REMARK  145  A    between atoms: _341  and  _343
REMARK  146  A    between atoms: _343  and  _344
REMARK  147  A    between atoms: _343  and  _346
REMARK  148  A    between atoms: _346  and  _347
REMARK  149  A    between atoms: _350  and  _352
REMARK  150  A    between atoms: _352  and  _353
REMARK  151  A    between atoms: _352  and  _355
REMARK  152  A    between atoms: _355  and  _356
REMARK  153  A    between atoms: _356  and  _357
REMARK  154  A    between atoms: _359  and  _361
REMARK  155  A    between atoms: _361  and  _362
REMARK  156  A    between atoms: _361  and  _364
REMARK  157  A    between atoms: _364  and  _365
REMARK  158  A    between atoms: _367  and  _369
REMARK  159  A    between atoms: _369  and  _370
REMARK  160  A    between atoms: _369  and  _372
REMARK  161  A    between atoms: _375  and  _377
REMARK  162  A    between atoms: _377  and  _378
REMARK  163  A    between atoms: _377  and  _380
REMARK  164  A    between atoms: _380  and  _381
REMARK  165  A    between atoms: _384  and  _386
REMARK  166  A    between atoms: _386  and  _387
REMARK  167  A    between atoms: _386  and  _389
REMARK  168  A    between atoms: _389  and  _390
REMARK  169  A    between atoms: _395  and  _397
REMARK  170  A    between atoms: _397  and  _398
REMARK  171  A    between atoms: _397  and  _400
REMARK  172  A    between atoms: _400  and  _401
REMARK  173  A    between atoms: _404  and  _406
REMARK  174  A    between atoms: _406  and  _407
REMARK  175  A    between atoms: _406  and  _409
REMARK  176  A    between atoms: _409  and  _410
REMARK  177  A    between atoms: _416  and  _418
REMARK  178  A    between atoms: _418  and  _419
REMARK  179  A    between atoms: _418  and  _421
REMARK  180  A    between atoms: _421  and  _422
REMARK  181  A    between atoms: _422  and  _423
REMARK  182  A    between atoms: _423  and  _424
REMARK  183  A    between atoms: _433  and  _435
REMARK  184  A    between atoms: _435  and  _436
REMARK  185  A    between atoms: _435  and  _438
REMARK  186  A    between atoms: _441  and  _443
REMARK  187  A    between atoms: _443  and  _444
REMARK  188  A    between atoms: _443  and  _446
REMARK  189  A    between atoms: _446  and  _447
REMARK  190  A    between atoms: _449  and  _451
REMARK  191  A    between atoms: _451  and  _452
REMARK  192  A    between atoms: _451  and  _454
REMARK  193  A    between atoms: _454  and  _455
REMARK  194  A    between atoms: _461  and  _463
REMARK  195  A    between atoms: _463  and  _464
REMARK  196  A    between atoms: _463  and  _466
REMARK  197  A    between atoms: _466  and  _467
REMARK  198  A    between atoms: _469  and  _471
REMARK  199  A    between atoms: _471  and  _472
REMARK  200  A    between atoms: _475  and  _476
REMARK  201  A    between atoms: _481  and  _483
REMARK  202  A    between atoms: _483  and  _484
REMARK  203  A    between atoms: _483  and  _486
REMARK  204  A    between atoms: _486  and  _487
REMARK  205  A    between atoms: _493  and  _495
REMARK  206  A    between atoms: _495  and  _496
REMARK  207  A    between atoms: _495  and  _498
REMARK  208  A    between atoms: _498  and  _499
REMARK  209  A    between atoms: _505  and  _507
REMARK  210  A    between atoms: _507  and  _508
REMARK  211  A    between atoms: _507  and  _510
REMARK  212  A    between atoms: _510  and  _511
REMARK  213  A    between atoms: _511  and  _512
REMARK  214  A    between atoms: _512  and  _513
REMARK  215  A    between atoms: _522  and  _524
REMARK  216  A    between atoms: _524  and  _525
REMARK  217  A    between atoms: _527  and  _529
REMARK  218  A    between atoms: _529  and  _530
REMARK  219  A    between atoms: _529  and  _532
REMARK  220  A    between atoms: _532  and  _533
REMARK  221  A    between atoms: _536  and  _538
REMARK  222  A    between atoms: _538  and  _539
REMARK  223  A    between atoms: _541  and  _543
REMARK  224  A    between atoms: _543  and  _544
REMARK  225  A    between atoms: _543  and  _546
REMARK  226  A    between atoms: _546  and  _547
REMARK  227  A    between atoms: _547  and  _548
REMARK  228  A    between atoms: _550  and  _552
REMARK  229  A    between atoms: _552  and  _553
REMARK  230  A    between atoms: _556  and  _558
REMARK  231  A    between atoms: _558  and  _559
REMARK  232  A    between atoms: _558  and  _561
REMARK  233  A    between atoms: _561  and  _562
REMARK  234  A    between atoms: _564  and  _566
REMARK  235  A    between atoms: _566  and  _567
REMARK  236  A    between atoms: _566  and  _569
REMARK  237  A    between atoms: _569  and  _570
REMARK  238  A    between atoms: _573  and  _575
REMARK  239  A    between atoms: _575  and  _576
REMARK  240  A    between atoms: _575  and  _578
REMARK  241  A    between atoms: _578  and  _579
REMARK  242  A    between atoms: _584  and  _586
REMARK  243  A    between atoms: _586  and  _587
REMARK  244  A    between atoms: _586  and  _589
REMARK  245  A    between atoms: _589  and  _590
REMARK  246  A    between atoms: _595  and  _597
REMARK  247  A    between atoms: _597  and  _598
REMARK  248  A    between atoms: _597  and  _600
REMARK  249  A    between atoms: _603  and  _605
REMARK  250  A    between atoms: _605  and  _606
REMARK  251  A    between atoms: _605  and  _608
REMARK  252  A    between atoms: _608  and  _609
REMARK  253  A    between atoms: _614  and  _615
REMARK                            x       y       z     vdW  Elec       q    Type
REMARK                         _______ _______ _______ _____ _____    ______ ____
ROOT
ATOM      1  CA  ASP A   3      12.818  13.801   6.544  0.00  0.00    +0.160 C 
ENDROOT
BRANCH   1   2
ATOM      2  C   ASP A   3      11.905  12.633   6.947  0.00  0.00    +0.241 C 
ATOM      3  N   HIS A   4      11.090  12.764   8.000  0.00  0.00    -0.297 N 
ATOM      4  H   HIS A   4      11.114  13.643   8.555  0.00  0.00    +0.150 HD
ATOM      5  O   ASP A   3      11.942  11.609   6.271  0.00  0.00    -0.273 OA
BRANCH   3   6
ATOM      6  CA  HIS A   4      10.147  11.675   8.395  0.00  0.00    +0.155 C 
BRANCH   6   7
ATOM      7  C   HIS A   4       8.934  11.470   7.447  0.00  0.00    +0.241 C 
ATOM      8  O   HIS A   4       8.434  10.352   7.317  0.00  0.00    -0.273 OA
ATOM      9  N   LEU A   5       8.457  12.529   6.805  0.00  0.00    -0.298 N 
ATOM     10  H   LEU A   5       8.934  13.447   6.913  0.00  0.00    +0.150 HD
BRANCH   9  11
ATOM     11  CA  LEU A   5       7.278  12.435   5.951  0.00  0.00    +0.137 C 
BRANCH  11  12
ATOM     12  C   LEU A   5       7.571  11.539   4.740  0.00  0.00    +0.227 C 
ATOM     13  O   LEU A   5       8.631  11.645   4.120  0.00  0.00    -0.286 OA
ENDBRANCH  11  12
BRANCH  11  14
ATOM     14  CB  LEU A   5       6.856  13.834   5.486  0.00  0.00    +0.028 C 
BRANCH  14  15
ATOM     15  CG  LEU A   5       5.516  13.982   4.759  0.00  0.00    +0.002 C 
ATOM     16  CD2 LEU A   5       4.353  13.733   5.711  0.00  0.00    +0.000 C 
ATOM     17  CD1 LEU A   5       5.402  15.359   4.125  0.00  0.00    +0.000 C 
ENDBRANCH  14  15
ENDBRANCH  11  14
ENDBRANCH   9  11
ENDBRANCH   6   7
BRANCH   6  18
ATOM     18  CB  HIS A   4       9.641  11.850   9.837  0.00  0.00    +0.076 C 
BRANCH  18  19
ATOM     19  CG  HIS A   4       9.000  10.616  10.404  0.00  0.00    +0.082 A 
ATOM     20  ND1 HIS A   4       9.664   9.754  11.252  0.00  0.00    -0.227 NA
ATOM     21  CE1 HIS A   4       8.861   8.757  11.583  0.00  0.00    +0.199 A 
ATOM     22  NE2 HIS A   4       7.700   8.937  10.977  0.00  0.00    -0.221 NA
ATOM     23  CD2 HIS A   4       7.762  10.090  10.231  0.00  0.00    +0.115 A 
ENDBRANCH  18  19
ENDBRANCH   6  18
ENDBRANCH   3   6
ENDBRANCH   1   2
BRANCH   1  26
ATOM     24  C   VAL A   2      11.368  14.340   4.655  0.00  0.00    +0.241 C 
ATOM     25  O   VAL A   2      10.385  14.475   5.370  0.00  0.00    -0.273 OA
ATOM     26  N   ASP A   3      12.586  14.120   5.141  0.00  0.00    -0.297 N 
ATOM     27  H   ASP A   3      13.401  14.178   4.498  0.00  0.00    +0.150 HD
BRANCH  24  28
ATOM     28  CA  VAL A   2      11.221  14.387   3.138  0.00  0.00    +0.148 C 
BRANCH  28  30
ATOM     29  C   SER A   1      10.989  12.399   1.719  0.00  0.00    +0.241 C 
ATOM     30  N   VAL A   2      10.585  13.137   2.751  0.00  0.00    -0.297 N 
ATOM     31  H   VAL A   2       9.773  12.803   3.309  0.00  0.00    +0.150 HD
ATOM     32  O   SER A   1      11.863  12.755   0.917  0.00  0.00    -0.274 OA
BRANCH  29  33
ATOM     33  CA  SER A   1      10.316  11.043   1.556  0.00  0.00    +0.174 C 
BRANCH  33  34
ATOM     34  N   SER A   1      10.150  10.760   0.144  0.00  0.00    -0.236 NA
ATOM     35  H   SER A   1      11.001  10.593  -0.430  0.00  0.00    +0.142 HD
ENDBRANCH  33  34
BRANCH  33  36
ATOM     36  CB  SER A   1      11.197   9.985   2.214  0.00  0.00    +0.163 C 
BRANCH  36  37
ATOM     37  OG  SER A   1      12.584  10.297   2.030  0.00  0.00    -0.380 OA
ATOM     38  H   SER A   1      12.780  11.177   2.438  0.00  0.00    +0.211 HD
ENDBRANCH  36  37
ENDBRANCH  33  36
ENDBRANCH  29  33
ENDBRANCH  28  30
BRANCH  28  39
ATOM     39  CB  VAL A   2      10.373  15.579   2.743  0.00  0.00    +0.027 C 
ATOM     40  CG2 VAL A   2      10.895  16.855   3.416  0.00  0.00    +0.002 C 
ATOM     41  CG1 VAL A   2      10.307  15.705   1.205  0.00  0.00    +0.002 C 
ENDBRANCH  28  39
ENDBRANCH  24  28
ENDBRANCH   1  26
BRANCH   1  42
ATOM     42  CB  ASP A   3      12.676  15.056   7.406  0.00  0.00    +0.143 C 
BRANCH  42  43
ATOM     43  CG  ASP A   3      13.675  16.126   7.024  0.00  0.00    +0.367 C 
ATOM     44  OD2 ASP A   3      13.440  17.311   7.295  0.00  0.00    -0.246 OA
ATOM     45  OD1 ASP A   3      14.721  15.796   6.434  0.00  0.00    -0.246 OA
ENDBRANCH  42  43
ENDBRANCH   1  42
TORSDOF 19
REMARK  Name = ../refined-set-2016/4dy6/4dy6_pocket.pdb
REMARK  253 active torsions:
REMARK  status: ('A' for Active; 'I' for Inactive)
REMARK    1  A    between atoms: _1  and  _3
REMARK    2  A    between atoms: _3  and  _4
REMARK    3  A    between atoms: _3  and  _6
REMARK    4  A    between atoms: _6  and  _7
REMARK    5  A    between atoms: _7  and  _8
REMARK    6  A    between atoms: _8  and  _9
REMARK    7  A    between atoms: _9  and  _10
REMARK    8  A    between atoms: _14  and  _16
REMARK    9  A    between atoms: _16  and  _17
REMARK   10  A    between atoms: _19  and  _21
REMARK   11  A    between atoms: _21  and  _22
REMARK   12  A    between atoms: _24  and  _26
REMARK   13  A    between atoms: _26  and  _27
REMARK   14  A    between atoms: _26  and  _29
REMARK   15  A    between atoms: _29  and  _30
REMARK   16  A    between atoms: _33  and  _35
REMARK   17  A    between atoms: _35  and  _36
REMARK   18  A    between atoms: _38  and  _40
REMARK   19  A    between atoms: _40  and  _41
REMARK   20  A    between atoms: _40  and  _43
REMARK   21  A    between atoms: _43  and  _44
REMARK   22  A    between atoms: _47  and  _49
REMARK   23  A    between atoms: _49  and  _50
REMARK   24  A    between atoms: _49  and  _52
REMARK   25  A    between atoms: _52  and  _53
REMARK   26  A    between atoms: _59  and  _61
REMARK   27  A    between atoms: _61  and  _62
REMARK   28  A    between atoms: _61  and  _64
REMARK   29  A    between atoms: _64  and  _65
REMARK   30  A    between atoms: _68  and  _70
REMARK   31  A    between atoms: _70  and  _71
REMARK   32  A    between atoms: _70  and  _73
REMARK   33  A    between atoms: _73  and  _74
REMARK   34  A    between atoms: _76  and  _78
REMARK   35  A    between atoms: _78  and  _79
REMARK   36  A    between atoms: _78  and  _81
REMARK   37  A    between atoms: _81  and  _82
REMARK   38  A    between atoms: _87  and  _89
REMARK   39  A    between atoms: _89  and  _90
REMARK   40  A    between atoms: _89  and  _92
REMARK   41  A    between atoms: _92  and  _93
REMARK   42  A    between atoms: _96  and  _98
REMARK   43  A    between atoms: _98  and  _99
REMARK   44  A    between atoms: _101  and  _103
REMARK   45  A    between atoms: _103  and  _104
REMARK   46  A    between atoms: _103  and  _106
REMARK   47  A    between atoms: _106  and  _107
REMARK   48  A    between atoms: _112  and  _114
REMARK   49  A    between atoms: _114  and  _115
REMARK   50  A    between atoms: _114  and  _117
REMARK   51  A    between atoms: _117  and  _118
REMARK   52  A    between atoms: _121  and  _123
REMARK   53  A    between atoms: _123  and  _124
REMARK   54  A    between atoms: _126  and  _128
REMARK   55  A    between atoms: _128  and  _129
REMARK   56  A    between atoms: _128  and  _131
REMARK   57  A    between atoms: _131  and  _132
REMARK   58  A    between atoms: _138  and  _140
REMARK   59  A    between atoms: _140  and  _141
REMARK   60  A    between atoms: _140  and  _143
REMARK   61  A    between atoms: _143  and  _144
REMARK   62  A    between atoms: _149  and  _150
REMARK   63  A    between atoms: _152  and  _154
REMARK   64  A    between atoms: _154  and  _155
REMARK   65  A    between atoms: _158  and  _160
REMARK   66  A    between atoms: _160  and  _161
REMARK   67  A    between atoms: _160  and  _163
REMARK   68  A    between atoms: _163  and  _164
REMARK   69  A    between atoms: _167  and  _169
REMARK   70  A    between atoms: _169  and  _170
REMARK   71  A    between atoms: _169  and  _172
REMARK   72  A    between atoms: _172  and  _173
REMARK   73  A    between atoms: _178  and  _180
REMARK   74  A    between atoms: _180  and  _181
REMARK   75  A    between atoms: _180  and  _183
REMARK   76  A    between atoms: _183  and  _184
REMARK   77  A    between atoms: _184  and  _185
REMARK   78  A    between atoms: _188  and  _190
REMARK   79  A    between atoms: _190  and  _191
REMARK   80  A    between atoms: _190  and  _193
REMARK   81  A    between atoms: _193  and  _194
REMARK   82  A    between atoms: _196  and  _198
REMARK   83  A    between atoms: _198  and  _199
REMARK   84  A    between atoms: _198  and  _201
REMARK   85  A    between atoms: _201  and  _202
REMARK   86  A    between atoms: _205  and  _207
REMARK   87  A    between atoms: _207  and  _208
REMARK   88  A    between atoms: _207  and  _210
REMARK   89  A    between atoms: _210  and  _211
REMARK   90  A    between atoms: _211  and  _212
REMARK   91  A    between atoms: _212  and  _213
REMARK   92  A    between atoms: _213  and  _214
REMARK   93  A    between atoms: _218  and  _220
REMARK   94  A    between atoms: _220  and  _221
REMARK   95  A    between atoms: _220  and  _223
REMARK   96  A    between atoms: _225  and  _227
REMARK   97  A    between atoms: _227  and  _228
REMARK   98  A    between atoms: _227  and  _230
REMARK   99  A    between atoms: _230  and  _231
REMARK  100  A    between atoms: _233  and  _235
REMARK  101  A    between atoms: _235  and  _236
REMARK  102  A    between atoms: _235  and  _238
REMARK  103  A    between atoms: _238  and  _239
REMARK  104  A    between atoms: _243  and  _244
REMARK  105  A    between atoms: _249  and  _251
REMARK  106  A    between atoms: _251  and  _252
REMARK  107  A    between atoms: _251  and  _254
REMARK  108  A    between atoms: _254  and  _255
REMARK  109  A    between atoms: _257  and  _259
REMARK  110  A    between atoms: _259  and  _260
REMARK  111  A    between atoms: _262  and  _264
REMARK  112  A    between atoms: _264  and  _265
REMARK  113  A    between atoms: _264  and  _267
REMARK  114  A    between atoms: _267  and  _268
REMARK  115  A    between atoms: _271  and  _273
REMARK  116  A    between atoms: _273  and  _274
REMARK  117  A    between atoms: _273  and  _276
REMARK  118  A    between atoms: _276  and  _277
REMARK  119  A    between atoms: _280  and  _282
REMARK  120  A    between atoms: _282  and  _283
REMARK  121  A    between atoms: _286  and  _288
REMARK  122  A    between atoms: _288  and  _289
REMARK  123  A    between atoms: _288  and  _291
REMARK  124  A    between atoms: _291  and  _292
REMARK  125  A    between atoms: _297  and  _298
REMARK  126  A    between atoms: _300  and  _302
REMARK  127  A    between atoms: _302  and  _303
REMARK  128  A    between atoms: _302  and  _305
REMARK  129  A    between atoms: _305  and  _306
REMARK  130  A    between atoms: _311  and  _313
REMARK  131  A    between atoms: _313  and  _314
REMARK  132  A    between atoms: _313  and  _316
REMARK  133  A    between atoms: _316  and  _317
REMARK  134  A    between atoms: _317  and  _318
REMARK  135  A    between atoms: _318  and  _319
REMARK  136  A    between atoms: _319  and  _320
REMARK  137  A    between atoms: _324  and  _326
REMARK  138  A    between atoms: _326  and  _327
REMARK  139  A    between atoms: _326  and  _329
REMARK  140  A    between atoms: _329  and  _330
REMARK  141  A    between atoms: _332  and  _334
REMARK  142  A    between atoms: _334  and  _335
REMARK  143  A    between atoms: _334  and  _337
REMARK  144  A    between atoms: _337  and  _338
REMARK  145  A    between atoms: _341  and  _343
REMARK  146  A    between atoms: _343  and  _344
REMARK  147  A    between atoms: _343  and  _346
REMARK  148  A    between atoms: _346  and  _347
REMARK  149  A    between atoms: _350  and  _352
REMARK  150  A    between atoms: _352  and  _353
REMARK  151  A    between atoms: _352  and  _355
REMARK  152  A    between atoms: _355  and  _356
REMARK  153  A    between atoms: _356  and  _357
REMARK  154  A    between atoms: _359  and  _361
REMARK  155  A    between atoms: _361  and  _362
REMARK  156  A    between atoms: _361  and  _364
REMARK  157  A    between atoms: _364  and  _365
REMARK  158  A    between atoms: _367  and  _369
REMARK  159  A    between atoms: _369  and  _370
REMARK  160  A    between atoms: _369  and  _372
REMARK  161  A    between atoms: _375  and  _377
REMARK  162  A    between atoms: _377  and  _378
REMARK  163  A    between atoms: _377  and  _380
REMARK  164  A    between atoms: _380  and  _381
REMARK  165  A    between atoms: _384  and  _386
REMARK  166  A    between atoms: _386  and  _387
REMARK  167  A    between atoms: _386  and  _389
REMARK  168  A    between atoms: _389  and  _390
REMARK  169  A    between atoms: _395  and  _397
REMARK  170  A    between atoms: _397  and  _398
REMARK  171  A    between atoms: _397  and  _400
REMARK  172  A    between atoms: _400  and  _401
REMARK  173  A    between atoms: _404  and  _406
REMARK  174  A    between atoms: _406  and  _407
REMARK  175  A    between atoms: _406  and  _409
REMARK  176  A    between atoms: _409  and  _410
REMARK  177  A    between atoms: _416  and  _418
REMARK  178  A    between atoms: _418  and  _419
REMARK  179  A    between atoms: _418  and  _421
REMARK  180  A    between atoms: _421  and  _422
REMARK  181  A    between atoms: _422  and  _423
REMARK  182  A    between atoms: _423  and  _424
REMARK  183  A    between atoms: _433  and  _435
REMARK  184  A    between atoms: _435  and  _436
REMARK  185  A    between atoms: _435  and  _438
REMARK  186  A    between atoms: _441  and  _443
REMARK  187  A    between atoms: _443  and  _444
REMARK  188  A    between atoms: _443  and  _446
REMARK  189  A    between atoms: _446  and  _447
REMARK  190  A    between atoms: _449  and  _451
REMARK  191  A    between atoms: _451  and  _452
REMARK  192  A    between atoms: _451  and  _454
REMARK  193  A    between atoms: _454  and  _455
REMARK  194  A    between atoms: _461  and  _463
REMARK  195  A    between atoms: _463  and  _464
REMARK  196  A    between atoms: _463  and  _466
REMARK  197  A    between atoms: _466  and  _467
REMARK  198  A    between atoms: _469  and  _471
REMARK  199  A    between atoms: _471  and  _472
REMARK  200  A    between atoms: _475  and  _476
REMARK  201  A    between atoms: _481  and  _483
REMARK  202  A    between atoms: _483  and  _484
REMARK  203  A    between atoms: _483  and  _486
REMARK  204  A    between atoms: _486  and  _487
REMARK  205  A    between atoms: _493  and  _495
REMARK  206  A    between atoms: _495  and  _496
REMARK  207  A    between atoms: _495  and  _498
REMARK  208  A    between atoms: _498  and  _499
REMARK  209  A    between atoms: _505  and  _507
REMARK  210  A    between atoms: _507  and  _508
REMARK  211  A    between atoms: _507  and  _510
REMARK  212  A    between atoms: _510  and  _511
REMARK  213  A    between atoms: _511  and  _512
REMARK  214  A    between atoms: _512  and  _513
REMARK  215  A    between atoms: _522  and  _524
REMARK  216  A    between atoms: _524  and  _525
REMARK  217  A    between atoms: _527  and  _529
REMARK  218  A    between atoms: _529  and  _530
REMARK  219  A    between atoms: _529  and  _532
REMARK  220  A    between atoms: _532  and  _533
REMARK  221  A    between atoms: _536  and  _538
REMARK  222  A    between atoms: _538  and  _539
REMARK  223  A    between atoms: _541  and  _543
REMARK  224  A    between atoms: _543  and  _544
REMARK  225  A    between atoms: _543  and  _546
REMARK  226  A    between atoms: _546  and  _547
REMARK  227  A    between atoms: _547  and  _548
REMARK  228  A    between atoms: _550  and  _552
REMARK  229  A    between atoms: _552  and  _553
REMARK  230  A    between atoms: _556  and  _558
REMARK  231  A    between atoms: _558  and  _559
REMARK  232  A    between atoms: _558  and  _561
REMARK  233  A    between atoms: _561  and  _562
REMARK  234  A    between atoms: _564  and  _566
REMARK  235  A    between atoms: _566  and  _567
REMARK  236  A    between atoms: _566  and  _569
REMARK  237  A    between atoms: _569  and  _570
REMARK  238  A    between atoms: _573  and  _575
REMARK  239  A    between atoms: _575  and  _576
REMARK  240  A    between atoms: _575  and  _578
REMARK  241  A    between atoms: _578  and  _579
REMARK  242  A    between atoms: _584  and  _586
REMARK  243  A    between atoms: _586  and  _587
REMARK  244  A    between atoms: _586  and  _589
REMARK  245  A    between atoms: _589  and  _590
REMARK  246  A    between atoms: _595  and  _597
REMARK  247  A    between atoms: _597  and  _598
REMARK  248  A    between atoms: _597  and  _600
REMARK  249  A    between atoms: _603  and  _605
REMARK  250  A    between atoms: _605  and  _606
REMARK  251  A    between atoms: _605  and  _608
REMARK  252  A    between atoms: _608  and  _609
REMARK  253  A    between atoms: _614  and  _615
REMARK                            x       y       z     vdW  Elec       q    Type
REMARK                         _______ _______ _______ _____ _____    ______ ____
ROOT
ATOM      1  CB  PHE A   1      30.330  19.879  13.100  0.00  0.00    +0.051 C 
ENDROOT
BRANCH   1   2
ATOM      2  CG  PHE A   1      29.673  18.875  12.197  0.00  0.00    -0.020 A 
ATOM      3  CD2 PHE A   1      28.287  18.730  12.190  0.00  0.00    -0.004 A 
ATOM      4  CE2 PHE A   1      27.668  17.792  11.346  0.00  0.00    -0.000 A 
ATOM      5  CZ  PHE A   1      28.447  17.021  10.491  0.00  0.00    -0.000 A 
ATOM      6  CE1 PHE A   1      29.854  17.175  10.480  0.00  0.00    -0.000 A 
ATOM      7  CD1 PHE A   1      30.447  18.100  11.312  0.00  0.00    -0.004 A 
ENDBRANCH   1   2
BRANCH   1   8
ATOM      8  CA  PHE A   1      30.470  19.420  14.559  0.00  0.00    +0.137 C 
BRANCH   8   9
ATOM      9  N   PHE A   1      31.043  20.507  15.361  0.00  0.00    -0.239 NA
ATOM     10  H   PHE A   1      31.164  21.437  14.911  0.00  0.00    +0.142 HD
ENDBRANCH   8   9
BRANCH   8  11
ATOM     11  C   PHE A   1      31.302  18.148  14.651  0.00  0.00    +0.224 C 
ATOM     12  O   PHE A   1      30.775  17.096  14.943  0.00  0.00    -0.287 OA
ENDBRANCH   8  11
ENDBRANCH   1   8
TORSDOF 4
REMARK  Name = ../refined-set-2016/4dy6/4dy6_pocket.pdb
REMARK  253 active torsions:
REMARK  status: ('A' for Active; 'I' for Inactive)
REMARK    1  A    between atoms: _1  and  _3
REMARK    2  A    between atoms: _3  and  _4
REMARK    3  A    between atoms: _3  and  _6
REMARK    4  A    between atoms: _6  and  _7
REMARK    5  A    between atoms: _7  and  _8
REMARK    6  A    between atoms: _8  and  _9
REMARK    7  A    between atoms: _9  and  _10
REMARK    8  A    between atoms: _14  and  _16
REMARK    9  A    between atoms: _16  and  _17
REMARK   10  A    between atoms: _19  and  _21
REMARK   11  A    between atoms: _21  and  _22
REMARK   12  A    between atoms: _24  and  _26
REMARK   13  A    between atoms: _26  and  _27
REMARK   14  A    between atoms: _26  and  _29
REMARK   15  A    between atoms: _29  and  _30
REMARK   16  A    between atoms: _33  and  _35
REMARK   17  A    between atoms: _35  and  _36
REMARK   18  A    between atoms: _38  and  _40
REMARK   19  A    between atoms: _40  and  _41
REMARK   20  A    between atoms: _40  and  _43
REMARK   21  A    between atoms: _43  and  _44
REMARK   22  A    between atoms: _47  and  _49
REMARK   23  A    between atoms: _49  and  _50
REMARK   24  A    between atoms: _49  and  _52
REMARK   25  A    between atoms: _52  and  _53
REMARK   26  A    between atoms: _59  and  _61
REMARK   27  A    between atoms: _61  and  _62
REMARK   28  A    between atoms: _61  and  _64
REMARK   29  A    between atoms: _64  and  _65
REMARK   30  A    between atoms: _68  and  _70
REMARK   31  A    between atoms: _70  and  _71
REMARK   32  A    between atoms: _70  and  _73
REMARK   33  A    between atoms: _73  and  _74
REMARK   34  A    between atoms: _76  and  _78
REMARK   35  A    between atoms: _78  and  _79
REMARK   36  A    between atoms: _78  and  _81
REMARK   37  A    between atoms: _81  and  _82
REMARK   38  A    between atoms: _87  and  _89
REMARK   39  A    between atoms: _89  and  _90
REMARK   40  A    between atoms: _89  and  _92
REMARK   41  A    between atoms: _92  and  _93
REMARK   42  A    between atoms: _96  and  _98
REMARK   43  A    between atoms: _98  and  _99
REMARK   44  A    between atoms: _101  and  _103
REMARK   45  A    between atoms: _103  and  _104
REMARK   46  A    between atoms: _103  and  _106
REMARK   47  A    between atoms: _106  and  _107
REMARK   48  A    between atoms: _112  and  _114
REMARK   49  A    between atoms: _114  and  _115
REMARK   50  A    between atoms: _114  and  _117
REMARK   51  A    between atoms: _117  and  _118
REMARK   52  A    between atoms: _121  and  _123
REMARK   53  A    between atoms: _123  and  _124
REMARK   54  A    between atoms: _126  and  _128
REMARK   55  A    between atoms: _128  and  _129
REMARK   56  A    between atoms: _128  and  _131
REMARK   57  A    between atoms: _131  and  _132
REMARK   58  A    between atoms: _138  and  _140
REMARK   59  A    between atoms: _140  and  _141
REMARK   60  A    between atoms: _140  and  _143
REMARK   61  A    between atoms: _143  and  _144
REMARK   62  A    between atoms: _149  and  _150
REMARK   63  A    between atoms: _152  and  _154
REMARK   64  A    between atoms: _154  and  _155
REMARK   65  A    between atoms: _158  and  _160
REMARK   66  A    between atoms: _160  and  _161
REMARK   67  A    between atoms: _160  and  _163
REMARK   68  A    between atoms: _163  and  _164
REMARK   69  A    between atoms: _167  and  _169
REMARK   70  A    between atoms: _169  and  _170
REMARK   71  A    between atoms: _169  and  _172
REMARK   72  A    between atoms: _172  and  _173
REMARK   73  A    between atoms: _178  and  _180
REMARK   74  A    between atoms: _180  and  _181
REMARK   75  A    between atoms: _180  and  _183
REMARK   76  A    between atoms: _183  and  _184
REMARK   77  A    between atoms: _184  and  _185
REMARK   78  A    between atoms: _188  and  _190
REMARK   79  A    between atoms: _190  and  _191
REMARK   80  A    between atoms: _190  and  _193
REMARK   81  A    between atoms: _193  and  _194
REMARK   82  A    between atoms: _196  and  _198
REMARK   83  A    between atoms: _198  and  _199
REMARK   84  A    between atoms: _198  and  _201
REMARK   85  A    between atoms: _201  and  _202
REMARK   86  A    between atoms: _205  and  _207
REMARK   87  A    between atoms: _207  and  _208
REMARK   88  A    between atoms: _207  and  _210
REMARK   89  A    between atoms: _210  and  _211
REMARK   90  A    between atoms: _211  and  _212
REMARK   91  A    between atoms: _212  and  _213
REMARK   92  A    between atoms: _213  and  _214
REMARK   93  A    between atoms: _218  and  _220
REMARK   94  A    between atoms: _220  and  _221
REMARK   95  A    between atoms: _220  and  _223
REMARK   96  A    between atoms: _225  and  _227
REMARK   97  A    between atoms: _227  and  _228
REMARK   98  A    between atoms: _227  and  _230
REMARK   99  A    between atoms: _230  and  _231
REMARK  100  A    between atoms: _233  and  _235
REMARK  101  A    between atoms: _235  and  _236
REMARK  102  A    between atoms: _235  and  _238
REMARK  103  A    between atoms: _238  and  _239
REMARK  104  A    between atoms: _243  and  _244
REMARK  105  A    between atoms: _249  and  _251
REMARK  106  A    between atoms: _251  and  _252
REMARK  107  A    between atoms: _251  and  _254
REMARK  108  A    between atoms: _254  and  _255
REMARK  109  A    between atoms: _257  and  _259
REMARK  110  A    between atoms: _259  and  _260
REMARK  111  A    between atoms: _262  and  _264
REMARK  112  A    between atoms: _264  and  _265
REMARK  113  A    between atoms: _264  and  _267
REMARK  114  A    between atoms: _267  and  _268
REMARK  115  A    between atoms: _271  and  _273
REMARK  116  A    between atoms: _273  and  _274
REMARK  117  A    between atoms: _273  and  _276
REMARK  118  A    between atoms: _276  and  _277
REMARK  119  A    between atoms: _280  and  _282
REMARK  120  A    between atoms: _282  and  _283
REMARK  121  A    between atoms: _286  and  _288
REMARK  122  A    between atoms: _288  and  _289
REMARK  123  A    between atoms: _288  and  _291
REMARK  124  A    between atoms: _291  and  _292
REMARK  125  A    between atoms: _297  and  _298
REMARK  126  A    between atoms: _300  and  _302
REMARK  127  A    between atoms: _302  and  _303
REMARK  128  A    between atoms: _302  and  _305
REMARK  129  A    between atoms: _305  and  _306
REMARK  130  A    between atoms: _311  and  _313
REMARK  131  A    between atoms: _313  and  _314
REMARK  132  A    between atoms: _313  and  _316
REMARK  133  A    between atoms: _316  and  _317
REMARK  134  A    between atoms: _317  and  _318
REMARK  135  A    between atoms: _318  and  _319
REMARK  136  A    between atoms: _319  and  _320
REMARK  137  A    between atoms: _324  and  _326
REMARK  138  A    between atoms: _326  and  _327
REMARK  139  A    between atoms: _326  and  _329
REMARK  140  A    between atoms: _329  and  _330
REMARK  141  A    between atoms: _332  and  _334
REMARK  142  A    between atoms: _334  and  _335
REMARK  143  A    between atoms: _334  and  _337
REMARK  144  A    between atoms: _337  and  _338
REMARK  145  A    between atoms: _341  and  _343
REMARK  146  A    between atoms: _343  and  _344
REMARK  147  A    between atoms: _343  and  _346
REMARK  148  A    between atoms: _346  and  _347
REMARK  149  A    between atoms: _350  and  _352
REMARK  150  A    between atoms: _352  and  _353
REMARK  151  A    between atoms: _352  and  _355
REMARK  152  A    between atoms: _355  and  _356
REMARK  153  A    between atoms: _356  and  _357
REMARK  154  A    between atoms: _359  and  _361
REMARK  155  A    between atoms: _361  and  _362
REMARK  156  A    between atoms: _361  and  _364
REMARK  157  A    between atoms: _364  and  _365
REMARK  158  A    between atoms: _367  and  _369
REMARK  159  A    between atoms: _369  and  _370
REMARK  160  A    between atoms: _369  and  _372
REMARK  161  A    between atoms: _375  and  _377
REMARK  162  A    between atoms: _377  and  _378
REMARK  163  A    between atoms: _377  and  _380
REMARK  164  A    between atoms: _380  and  _381
REMARK  165  A    between atoms: _384  and  _386
REMARK  166  A    between atoms: _386  and  _387
REMARK  167  A    between atoms: _386  and  _389
REMARK  168  A    between atoms: _389  and  _390
REMARK  169  A    between atoms: _395  and  _397
REMARK  170  A    between atoms: _397  and  _398
REMARK  171  A    between atoms: _397  and  _400
REMARK  172  A    between atoms: _400  and  _401
REMARK  173  A    between atoms: _404  and  _406
REMARK  174  A    between atoms: _406  and  _407
REMARK  175  A    between atoms: _406  and  _409
REMARK  176  A    between atoms: _409  and  _410
REMARK  177  A    between atoms: _416  and  _418
REMARK  178  A    between atoms: _418  and  _419
REMARK  179  A    between atoms: _418  and  _421
REMARK  180  A    between atoms: _421  and  _422
REMARK  181  A    between atoms: _422  and  _423
REMARK  182  A    between atoms: _423  and  _424
REMARK  183  A    between atoms: _433  and  _435
REMARK  184  A    between atoms: _435  and  _436
REMARK  185  A    between atoms: _435  and  _438
REMARK  186  A    between atoms: _441  and  _443
REMARK  187  A    between atoms: _443  and  _444
REMARK  188  A    between atoms: _443  and  _446
REMARK  189  A    between atoms: _446  and  _447
REMARK  190  A    between atoms: _449  and  _451
REMARK  191  A    between atoms: _451  and  _452
REMARK  192  A    between atoms: _451  and  _454
REMARK  193  A    between atoms: _454  and  _455
REMARK  194  A    between atoms: _461  and  _463
REMARK  195  A    between atoms: _463  and  _464
REMARK  196  A    between atoms: _463  and  _466
REMARK  197  A    between atoms: _466  and  _467
REMARK  198  A    between atoms: _469  and  _471
REMARK  199  A    between atoms: _471  and  _472
REMARK  200  A    between atoms: _475  and  _476
REMARK  201  A    between atoms: _481  and  _483
REMARK  202  A    between atoms: _483  and  _484
REMARK  203  A    between atoms: _483  and  _486
REMARK  204  A    between atoms: _486  and  _487
REMARK  205  A    between atoms: _493  and  _495
REMARK  206  A    between atoms: _495  and  _496
REMARK  207  A    between atoms: _495  and  _498
REMARK  208  A    between atoms: _498  and  _499
REMARK  209  A    between atoms: _505  and  _507
REMARK  210  A    between atoms: _507  and  _508
REMARK  211  A    between atoms: _507  and  _510
REMARK  212  A    between atoms: _510  and  _511
REMARK  213  A    between atoms: _511  and  _512
REMARK  214  A    between atoms: _512  and  _513
REMARK  215  A    between atoms: _522  and  _524
REMARK  216  A    between atoms: _524  and  _525
REMARK  217  A    between atoms: _527  and  _529
REMARK  218  A    between atoms: _529  and  _530
REMARK  219  A    between atoms: _529  and  _532
REMARK  220  A    between atoms: _532  and  _533
REMARK  221  A    between atoms: _536  and  _538
REMARK  222  A    between atoms: _538  and  _539
REMARK  223  A    between atoms: _541  and  _543
REMARK  224  A    between atoms: _543  and  _544
REMARK  225  A    between atoms: _543  and  _546
REMARK  226  A    between atoms: _546  and  _547
REMARK  227  A    between atoms: _547  and  _548
REMARK  228  A    between atoms: _550  and  _552
REMARK  229  A    between atoms: _552  and  _553
REMARK  230  A    between atoms: _556  and  _558
REMARK  231  A    between atoms: _558  and  _559
REMARK  232  A    between atoms: _558  and  _561
REMARK  233  A    between atoms: _561  and  _562
REMARK  234  A    between atoms: _564  and  _566
REMARK  235  A    between atoms: _566  and  _567
REMARK  236  A    between atoms: _566  and  _569
REMARK  237  A    between atoms: _569  and  _570
REMARK  238  A    between atoms: _573  and  _575
REMARK  239  A    between atoms: _575  and  _576
REMARK  240  A    between atoms: _575  and  _578
REMARK  241  A    between atoms: _578  and  _579
REMARK  242  A    between atoms: _584  and  _586
REMARK  243  A    between atoms: _586  and  _587
REMARK  244  A    between atoms: _586  and  _589
REMARK  245  A    between atoms: _589  and  _590
REMARK  246  A    between atoms: _595  and  _597
REMARK  247  A    between atoms: _597  and  _598
REMARK  248  A    between atoms: _597  and  _600
REMARK  249  A    between atoms: _603  and  _605
REMARK  250  A    between atoms: _605  and  _606
REMARK  251  A    between atoms: _605  and  _608
REMARK  252  A    between atoms: _608  and  _609
REMARK  253  A    between atoms: _614  and  _615
REMARK                            x       y       z     vdW  Elec       q    Type
REMARK                         _______ _______ _______ _____ _____    ______ ____
ROOT
ATOM      1  CA  ARG A   1      29.511  15.904  17.801  0.00  0.00    +0.145 C 
ENDROOT
BRANCH   1   2
ATOM      2  C   ARG A   1      29.572  14.528  17.067  0.00  0.00    +0.238 C 
ATOM      3  O   ARG A   1      28.966  13.558  17.512  0.00  0.00    -0.274 OA
ATOM      4  N   VAL A   2      30.315  14.462  15.954  0.00  0.00    -0.298 N 
ATOM      5  H   VAL A   2      30.803  15.325  15.639  0.00  0.00    +0.150 HD
BRANCH   4   6
ATOM      6  CA  VAL A   2      30.482  13.233  15.148  0.00  0.00    +0.137 C 
BRANCH   6   7
ATOM      7  CB  VAL A   2      31.205  13.522  13.798  0.00  0.00    +0.026 C 
ATOM      8  CG2 VAL A   2      31.693  12.238  13.128  0.00  0.00    +0.002 C 
ATOM      9  CG1 VAL A   2      30.312  14.295  12.835  0.00  0.00    +0.002 C 
ENDBRANCH   6   7
BRANCH   6  10
ATOM     10  C   VAL A   2      31.260  12.165  15.919  0.00  0.00    +0.227 C 
ATOM     11  O   VAL A   2      30.906  10.977  15.899  0.00  0.00    -0.286 OA
ENDBRANCH   6  10
ENDBRANCH   4   6
ENDBRANCH   1   2
BRANCH   1  12
ATOM     12  N   ARG A   1      30.828  16.535  17.886  0.00  0.00    -0.238 NA
ATOM     13  H   ARG A   1      30.941  17.517  17.563  0.00  0.00    +0.142 HD
ENDBRANCH   1  12
BRANCH   1  14
ATOM     14  CB  ARG A   1      28.575  16.849  17.064  0.00  0.00    +0.030 C 
BRANCH  14  15
ATOM     15  CG  ARG A   1      27.175  17.019  17.635  0.00  0.00    +0.045 C 
BRANCH  15  16
ATOM     16  CD  ARG A   1      26.400  18.078  16.822  0.00  0.00    +0.174 C 
BRANCH  16  17
ATOM     17  NE  ARG A   1      27.146  19.335  16.812  0.00  0.00    -0.265 N 
ATOM     18  HE  ARG A   1      27.827  19.486  17.583  0.00  0.00    +0.259 HD
ATOM     19  CZ  ARG A   1      27.033  20.307  15.903  0.00  0.00    +0.342 C 
ATOM     20  NH2 ARG A   1      27.790  21.397  16.026  0.00  0.00    -0.292 N 
ATOM     21 HH21 ARG A   1      28.456  21.481  16.821  0.00  0.00    +0.255 HD
ATOM     22 HH22 ARG A   1      27.715  22.164  15.327  0.00  0.00    +0.255 HD
ATOM     23  NH1 ARG A   1      26.177  20.215  14.880  0.00  0.00    -0.292 N 
ATOM     24 HH11 ARG A   1      25.578  19.371  14.777  0.00  0.00    +0.255 HD
ATOM     25 HH12 ARG A   1      26.110  20.987  14.187  0.00  0.00    +0.255 HD
ENDBRANCH  16  17
ENDBRANCH  15  16
ENDBRANCH  14  15
ENDBRANCH   1  14
TORSDOF 9
REMARK  Name = ../refined-set-2016/4dy6/4dy6_pocket.pdb
REMARK  253 active torsions:
REMARK  status: ('A' for Active; 'I' for Inactive)
REMARK    1  A    between atoms: _1  and  _3
REMARK    2  A    between atoms: _3  and  _4
REMARK    3  A    between atoms: _3  and  _6
REMARK    4  A    between atoms: _6  and  _7
REMARK    5  A    between atoms: _7  and  _8
REMARK    6  A    between atoms: _8  and  _9
REMARK    7  A    between atoms: _9  and  _10
REMARK    8  A    between atoms: _14  and  _16
REMARK    9  A    between atoms: _16  and  _17
REMARK   10  A    between atoms: _19  and  _21
REMARK   11  A    between atoms: _21  and  _22
REMARK   12  A    between atoms: _24  and  _26
REMARK   13  A    between atoms: _26  and  _27
REMARK   14  A    between atoms: _26  and  _29
REMARK   15  A    between atoms: _29  and  _30
REMARK   16  A    between atoms: _33  and  _35
REMARK   17  A    between atoms: _35  and  _36
REMARK   18  A    between atoms: _38  and  _40
REMARK   19  A    between atoms: _40  and  _41
REMARK   20  A    between atoms: _40  and  _43
REMARK   21  A    between atoms: _43  and  _44
REMARK   22  A    between atoms: _47  and  _49
REMARK   23  A    between atoms: _49  and  _50
REMARK   24  A    between atoms: _49  and  _52
REMARK   25  A    between atoms: _52  and  _53
REMARK   26  A    between atoms: _59  and  _61
REMARK   27  A    between atoms: _61  and  _62
REMARK   28  A    between atoms: _61  and  _64
REMARK   29  A    between atoms: _64  and  _65
REMARK   30  A    between atoms: _68  and  _70
REMARK   31  A    between atoms: _70  and  _71
REMARK   32  A    between atoms: _70  and  _73
REMARK   33  A    between atoms: _73  and  _74
REMARK   34  A    between atoms: _76  and  _78
REMARK   35  A    between atoms: _78  and  _79
REMARK   36  A    between atoms: _78  and  _81
REMARK   37  A    between atoms: _81  and  _82
REMARK   38  A    between atoms: _87  and  _89
REMARK   39  A    between atoms: _89  and  _90
REMARK   40  A    between atoms: _89  and  _92
REMARK   41  A    between atoms: _92  and  _93
REMARK   42  A    between atoms: _96  and  _98
REMARK   43  A    between atoms: _98  and  _99
REMARK   44  A    between atoms: _101  and  _103
REMARK   45  A    between atoms: _103  and  _104
REMARK   46  A    between atoms: _103  and  _106
REMARK   47  A    between atoms: _106  and  _107
REMARK   48  A    between atoms: _112  and  _114
REMARK   49  A    between atoms: _114  and  _115
REMARK   50  A    between atoms: _114  and  _117
REMARK   51  A    between atoms: _117  and  _118
REMARK   52  A    between atoms: _121  and  _123
REMARK   53  A    between atoms: _123  and  _124
REMARK   54  A    between atoms: _126  and  _128
REMARK   55  A    between atoms: _128  and  _129
REMARK   56  A    between atoms: _128  and  _131
REMARK   57  A    between atoms: _131  and  _132
REMARK   58  A    between atoms: _138  and  _140
REMARK   59  A    between atoms: _140  and  _141
REMARK   60  A    between atoms: _140  and  _143
REMARK   61  A    between atoms: _143  and  _144
REMARK   62  A    between atoms: _149  and  _150
REMARK   63  A    between atoms: _152  and  _154
REMARK   64  A    between atoms: _154  and  _155
REMARK   65  A    between atoms: _158  and  _160
REMARK   66  A    between atoms: _160  and  _161
REMARK   67  A    between atoms: _160  and  _163
REMARK   68  A    between atoms: _163  and  _164
REMARK   69  A    between atoms: _167  and  _169
REMARK   70  A    between atoms: _169  and  _170
REMARK   71  A    between atoms: _169  and  _172
REMARK   72  A    between atoms: _172  and  _173
REMARK   73  A    between atoms: _178  and  _180
REMARK   74  A    between atoms: _180  and  _181
REMARK   75  A    between atoms: _180  and  _183
REMARK   76  A    between atoms: _183  and  _184
REMARK   77  A    between atoms: _184  and  _185
REMARK   78  A    between atoms: _188  and  _190
REMARK   79  A    between atoms: _190  and  _191
REMARK   80  A    between atoms: _190  and  _193
REMARK   81  A    between atoms: _193  and  _194
REMARK   82  A    between atoms: _196  and  _198
REMARK   83  A    between atoms: _198  and  _199
REMARK   84  A    between atoms: _198  and  _201
REMARK   85  A    between atoms: _201  and  _202
REMARK   86  A    between atoms: _205  and  _207
REMARK   87  A    between atoms: _207  and  _208
REMARK   88  A    between atoms: _207  and  _210
REMARK   89  A    between atoms: _210  and  _211
REMARK   90  A    between atoms: _211  and  _212
REMARK   91  A    between atoms: _212  and  _213
REMARK   92  A    between atoms: _213  and  _214
REMARK   93  A    between atoms: _218  and  _220
REMARK   94  A    between atoms: _220  and  _221
REMARK   95  A    between atoms: _220  and  _223
REMARK   96  A    between atoms: _225  and  _227
REMARK   97  A    between atoms: _227  and  _228
REMARK   98  A    between atoms: _227  and  _230
REMARK   99  A    between atoms: _230  and  _231
REMARK  100  A    between atoms: _233  and  _235
REMARK  101  A    between atoms: _235  and  _236
REMARK  102  A    between atoms: _235  and  _238
REMARK  103  A    between atoms: _238  and  _239
REMARK  104  A    between atoms: _243  and  _244
REMARK  105  A    between atoms: _249  and  _251
REMARK  106  A    between atoms: _251  and  _252
REMARK  107  A    between atoms: _251  and  _254
REMARK  108  A    between atoms: _254  and  _255
REMARK  109  A    between atoms: _257  and  _259
REMARK  110  A    between atoms: _259  and  _260
REMARK  111  A    between atoms: _262  and  _264
REMARK  112  A    between atoms: _264  and  _265
REMARK  113  A    between atoms: _264  and  _267
REMARK  114  A    between atoms: _267  and  _268
REMARK  115  A    between atoms: _271  and  _273
REMARK  116  A    between atoms: _273  and  _274
REMARK  117  A    between atoms: _273  and  _276
REMARK  118  A    between atoms: _276  and  _277
REMARK  119  A    between atoms: _280  and  _282
REMARK  120  A    between atoms: _282  and  _283
REMARK  121  A    between atoms: _286  and  _288
REMARK  122  A    between atoms: _288  and  _289
REMARK  123  A    between atoms: _288  and  _291
REMARK  124  A    between atoms: _291  and  _292
REMARK  125  A    between atoms: _297  and  _298
REMARK  126  A    between atoms: _300  and  _302
REMARK  127  A    between atoms: _302  and  _303
REMARK  128  A    between atoms: _302  and  _305
REMARK  129  A    between atoms: _305  and  _306
REMARK  130  A    between atoms: _311  and  _313
REMARK  131  A    between atoms: _313  and  _314
REMARK  132  A    between atoms: _313  and  _316
REMARK  133  A    between atoms: _316  and  _317
REMARK  134  A    between atoms: _317  and  _318
REMARK  135  A    between atoms: _318  and  _319
REMARK  136  A    between atoms: _319  and  _320
REMARK  137  A    between atoms: _324  and  _326
REMARK  138  A    between atoms: _326  and  _327
REMARK  139  A    between atoms: _326  and  _329
REMARK  140  A    between atoms: _329  and  _330
REMARK  141  A    between atoms: _332  and  _334
REMARK  142  A    between atoms: _334  and  _335
REMARK  143  A    between atoms: _334  and  _337
REMARK  144  A    between atoms: _337  and  _338
REMARK  145  A    between atoms: _341  and  _343
REMARK  146  A    between atoms: _343  and  _344
REMARK  147  A    between atoms: _343  and  _346
REMARK  148  A    between atoms: _346  and  _347
REMARK  149  A    between atoms: _350  and  _352
REMARK  150  A    between atoms: _352  and  _353
REMARK  151  A    between atoms: _352  and  _355
REMARK  152  A    between atoms: _355  and  _356
REMARK  153  A    between atoms: _356  and  _357
REMARK  154  A    between atoms: _359  and  _361
REMARK  155  A    between atoms: _361  and  _362
REMARK  156  A    between atoms: _361  and  _364
REMARK  157  A    between atoms: _364  and  _365
REMARK  158  A    between atoms: _367  and  _369
REMARK  159  A    between atoms: _369  and  _370
REMARK  160  A    between atoms: _369  and  _372
REMARK  161  A    between atoms: _375  and  _377
REMARK  162  A    between atoms: _377  and  _378
REMARK  163  A    between atoms: _377  and  _380
REMARK  164  A    between atoms: _380  and  _381
REMARK  165  A    between atoms: _384  and  _386
REMARK  166  A    between atoms: _386  and  _387
REMARK  167  A    between atoms: _386  and  _389
REMARK  168  A    between atoms: _389  and  _390
REMARK  169  A    between atoms: _395  and  _397
REMARK  170  A    between atoms: _397  and  _398
REMARK  171  A    between atoms: _397  and  _400
REMARK  172  A    between atoms: _400  and  _401
REMARK  173  A    between atoms: _404  and  _406
REMARK  174  A    between atoms: _406  and  _407
REMARK  175  A    between atoms: _406  and  _409
REMARK  176  A    between atoms: _409  and  _410
REMARK  177  A    between atoms: _416  and  _418
REMARK  178  A    between atoms: _418  and  _419
REMARK  179  A    between atoms: _418  and  _421
REMARK  180  A    between atoms: _421  and  _422
REMARK  181  A    between atoms: _422  and  _423
REMARK  182  A    between atoms: _423  and  _424
REMARK  183  A    between atoms: _433  and  _435
REMARK  184  A    between atoms: _435  and  _436
REMARK  185  A    between atoms: _435  and  _438
REMARK  186  A    between atoms: _441  and  _443
REMARK  187  A    between atoms: _443  and  _444
REMARK  188  A    between atoms: _443  and  _446
REMARK  189  A    between atoms: _446  and  _447
REMARK  190  A    between atoms: _449  and  _451
REMARK  191  A    between atoms: _451  and  _452
REMARK  192  A    between atoms: _451  and  _454
REMARK  193  A    between atoms: _454  and  _455
REMARK  194  A    between atoms: _461  and  _463
REMARK  195  A    between atoms: _463  and  _464
REMARK  196  A    between atoms: _463  and  _466
REMARK  197  A    between atoms: _466  and  _467
REMARK  198  A    between atoms: _469  and  _471
REMARK  199  A    between atoms: _471  and  _472
REMARK  200  A    between atoms: _475  and  _476
REMARK  201  A    between atoms: _481  and  _483
REMARK  202  A    between atoms: _483  and  _484
REMARK  203  A    between atoms: _483  and  _486
REMARK  204  A    between atoms: _486  and  _487
REMARK  205  A    between atoms: _493  and  _495
REMARK  206  A    between atoms: _495  and  _496
REMARK  207  A    between atoms: _495  and  _498
REMARK  208  A    between atoms: _498  and  _499
REMARK  209  A    between atoms: _505  and  _507
REMARK  210  A    between atoms: _507  and  _508
REMARK  211  A    between atoms: _507  and  _510
REMARK  212  A    between atoms: _510  and  _511
REMARK  213  A    between atoms: _511  and  _512
REMARK  214  A    between atoms: _512  and  _513
REMARK  215  A    between atoms: _522  and  _524
REMARK  216  A    between atoms: _524  and  _525
REMARK  217  A    between atoms: _527  and  _529
REMARK  218  A    between atoms: _529  and  _530
REMARK  219  A    between atoms: _529  and  _532
REMARK  220  A    between atoms: _532  and  _533
REMARK  221  A    between atoms: _536  and  _538
REMARK  222  A    between atoms: _538  and  _539
REMARK  223  A    between atoms: _541  and  _543
REMARK  224  A    between atoms: _543  and  _544
REMARK  225  A    between atoms: _543  and  _546
REMARK  226  A    between atoms: _546  and  _547
REMARK  227  A    between atoms: _547  and  _548
REMARK  228  A    between atoms: _550  and  _552
REMARK  229  A    between atoms: _552  and  _553
REMARK  230  A    between atoms: _556  and  _558
REMARK  231  A    between atoms: _558  and  _559
REMARK  232  A    between atoms: _558  and  _561
REMARK  233  A    between atoms: _561  and  _562
REMARK  234  A    between atoms: _564  and  _566
REMARK  235  A    between atoms: _566  and  _567
REMARK  236  A    between atoms: _566  and  _569
REMARK  237  A    between atoms: _569  and  _570
REMARK  238  A    between atoms: _573  and  _575
REMARK  239  A    between atoms: _575  and  _576
REMARK  240  A    between atoms: _575  and  _578
REMARK  241  A    between atoms: _578  and  _579
REMARK  242  A    between atoms: _584  and  _586
REMARK  243  A    between atoms: _586  and  _587
REMARK  244  A    between atoms: _586  and  _589
REMARK  245  A    between atoms: _589  and  _590
REMARK  246  A    between atoms: _595  and  _597
REMARK  247  A    between atoms: _597  and  _598
REMARK  248  A    between atoms: _597  and  _600
REMARK  249  A    between atoms: _603  and  _605
REMARK  250  A    between atoms: _605  and  _606
REMARK  251  A    between atoms: _605  and  _608
REMARK  252  A    between atoms: _608  and  _609
REMARK  253  A    between atoms: _614  and  _615
REMARK                            x       y       z     vdW  Elec       q    Type
REMARK                         _______ _______ _______ _____ _____    ______ ____
ROOT
ATOM      1  C   SER A   1      28.565   8.531  17.670  0.00  0.00    +0.241 C 
ATOM      2  O   SER A   1      27.855   7.513  17.728  0.00  0.00    -0.274 OA
ATOM      3  N   PHE A   2      29.731   8.557  17.022  0.00  0.00    -0.298 N 
ATOM      4  H   PHE A   2      30.330   9.405  17.076  0.00  0.00    +0.150 HD
ENDROOT
BRANCH   1   5
ATOM      5  CA  SER A   1      28.090   9.840  18.311  0.00  0.00    +0.174 C 
BRANCH   5   6
ATOM      6  N   SER A   1      29.169  10.715  18.806  0.00  0.00    -0.236 NA
ATOM      7  H   SER A   1      29.471  11.514  18.212  0.00  0.00    +0.142 HD
ENDBRANCH   5   6
BRANCH   5   8
ATOM      8  CB  SER A   1      27.223  10.574  17.267  0.00  0.00    +0.163 C 
BRANCH   8   9
ATOM      9  OG  SER A   1      26.407  11.579  17.846  0.00  0.00    -0.380 OA
ATOM     10  H   SER A   1      26.980  12.251  18.293  0.00  0.00    +0.211 HD
ENDBRANCH   8   9
ENDBRANCH   5   8
ENDBRANCH   1   5
BRANCH   3  11
ATOM     11  CA  PHE A   2      30.177   7.403  16.235  0.00  0.00    +0.141 C 
BRANCH  11  12
ATOM     12  C   PHE A   2      31.428   6.696  16.758  0.00  0.00    +0.227 C 
ATOM     13  O   PHE A   2      31.600   5.510  16.490  0.00  0.00    -0.286 OA
ENDBRANCH  11  12
BRANCH  11  14
ATOM     14  CB  PHE A   2      30.338   7.792  14.758  0.00  0.00    +0.054 C 
BRANCH  14  15
ATOM     15  CG  PHE A   2      29.047   8.193  14.105  0.00  0.00    -0.020 A 
ATOM     16  CD2 PHE A   2      28.063   7.264  13.877  0.00  0.00    -0.004 A 
ATOM     17  CE2 PHE A   2      26.855   7.641  13.307  0.00  0.00    -0.000 A 
ATOM     18  CZ  PHE A   2      26.639   8.963  12.960  0.00  0.00    -0.000 A 
ATOM     19  CE1 PHE A   2      27.615   9.882  13.189  0.00  0.00    -0.000 A 
ATOM     20  CD1 PHE A   2      28.804   9.501  13.763  0.00  0.00    -0.004 A 
ENDBRANCH  14  15
ENDBRANCH  11  14
ENDBRANCH   3  11
TORSDOF 8
REMARK  Name = ../refined-set-2016/4dy6/4dy6_pocket.pdb
REMARK  253 active torsions:
REMARK  status: ('A' for Active; 'I' for Inactive)
REMARK    1  A    between atoms: _1  and  _3
REMARK    2  A    between atoms: _3  and  _4
REMARK    3  A    between atoms: _3  and  _6
REMARK    4  A    between atoms: _6  and  _7
REMARK    5  A    between atoms: _7  and  _8
REMARK    6  A    between atoms: _8  and  _9
REMARK    7  A    between atoms: _9  and  _10
REMARK    8  A    between atoms: _14  and  _16
REMARK    9  A    between atoms: _16  and  _17
REMARK   10  A    between atoms: _19  and  _21
REMARK   11  A    between atoms: _21  and  _22
REMARK   12  A    between atoms: _24  and  _26
REMARK   13  A    between atoms: _26  and  _27
REMARK   14  A    between atoms: _26  and  _29
REMARK   15  A    between atoms: _29  and  _30
REMARK   16  A    between atoms: _33  and  _35
REMARK   17  A    between atoms: _35  and  _36
REMARK   18  A    between atoms: _38  and  _40
REMARK   19  A    between atoms: _40  and  _41
REMARK   20  A    between atoms: _40  and  _43
REMARK   21  A    between atoms: _43  and  _44
REMARK   22  A    between atoms: _47  and  _49
REMARK   23  A    between atoms: _49  and  _50
REMARK   24  A    between atoms: _49  and  _52
REMARK   25  A    between atoms: _52  and  _53
REMARK   26  A    between atoms: _59  and  _61
REMARK   27  A    between atoms: _61  and  _62
REMARK   28  A    between atoms: _61  and  _64
REMARK   29  A    between atoms: _64  and  _65
REMARK   30  A    between atoms: _68  and  _70
REMARK   31  A    between atoms: _70  and  _71
REMARK   32  A    between atoms: _70  and  _73
REMARK   33  A    between atoms: _73  and  _74
REMARK   34  A    between atoms: _76  and  _78
REMARK   35  A    between atoms: _78  and  _79
REMARK   36  A    between atoms: _78  and  _81
REMARK   37  A    between atoms: _81  and  _82
REMARK   38  A    between atoms: _87  and  _89
REMARK   39  A    between atoms: _89  and  _90
REMARK   40  A    between atoms: _89  and  _92
REMARK   41  A    between atoms: _92  and  _93
REMARK   42  A    between atoms: _96  and  _98
REMARK   43  A    between atoms: _98  and  _99
REMARK   44  A    between atoms: _101  and  _103
REMARK   45  A    between atoms: _103  and  _104
REMARK   46  A    between atoms: _103  and  _106
REMARK   47  A    between atoms: _106  and  _107
REMARK   48  A    between atoms: _112  and  _114
REMARK   49  A    between atoms: _114  and  _115
REMARK   50  A    between atoms: _114  and  _117
REMARK   51  A    between atoms: _117  and  _118
REMARK   52  A    between atoms: _121  and  _123
REMARK   53  A    between atoms: _123  and  _124
REMARK   54  A    between atoms: _126  and  _128
REMARK   55  A    between atoms: _128  and  _129
REMARK   56  A    between atoms: _128  and  _131
REMARK   57  A    between atoms: _131  and  _132
REMARK   58  A    between atoms: _138  and  _140
REMARK   59  A    between atoms: _140  and  _141
REMARK   60  A    between atoms: _140  and  _143
REMARK   61  A    between atoms: _143  and  _144
REMARK   62  A    between atoms: _149  and  _150
REMARK   63  A    between atoms: _152  and  _154
REMARK   64  A    between atoms: _154  and  _155
REMARK   65  A    between atoms: _158  and  _160
REMARK   66  A    between atoms: _160  and  _161
REMARK   67  A    between atoms: _160  and  _163
REMARK   68  A    between atoms: _163  and  _164
REMARK   69  A    between atoms: _167  and  _169
REMARK   70  A    between atoms: _169  and  _170
REMARK   71  A    between atoms: _169  and  _172
REMARK   72  A    between atoms: _172  and  _173
REMARK   73  A    between atoms: _178  and  _180
REMARK   74  A    between atoms: _180  and  _181
REMARK   75  A    between atoms: _180  and  _183
REMARK   76  A    between atoms: _183  and  _184
REMARK   77  A    between atoms: _184  and  _185
REMARK   78  A    between atoms: _188  and  _190
REMARK   79  A    between atoms: _190  and  _191
REMARK   80  A    between atoms: _190  and  _193
REMARK   81  A    between atoms: _193  and  _194
REMARK   82  A    between atoms: _196  and  _198
REMARK   83  A    between atoms: _198  and  _199
REMARK   84  A    between atoms: _198  and  _201
REMARK   85  A    between atoms: _201  and  _202
REMARK   86  A    between atoms: _205  and  _207
REMARK   87  A    between atoms: _207  and  _208
REMARK   88  A    between atoms: _207  and  _210
REMARK   89  A    between atoms: _210  and  _211
REMARK   90  A    between atoms: _211  and  _212
REMARK   91  A    between atoms: _212  and  _213
REMARK   92  A    between atoms: _213  and  _214
REMARK   93  A    between atoms: _218  and  _220
REMARK   94  A    between atoms: _220  and  _221
REMARK   95  A    between atoms: _220  and  _223
REMARK   96  A    between atoms: _225  and  _227
REMARK   97  A    between atoms: _227  and  _228
REMARK   98  A    between atoms: _227  and  _230
REMARK   99  A    between atoms: _230  and  _231
REMARK  100  A    between atoms: _233  and  _235
REMARK  101  A    between atoms: _235  and  _236
REMARK  102  A    between atoms: _235  and  _238
REMARK  103  A    between atoms: _238  and  _239
REMARK  104  A    between atoms: _243  and  _244
REMARK  105  A    between atoms: _249  and  _251
REMARK  106  A    between atoms: _251  and  _252
REMARK  107  A    between atoms: _251  and  _254
REMARK  108  A    between atoms: _254  and  _255
REMARK  109  A    between atoms: _257  and  _259
REMARK  110  A    between atoms: _259  and  _260
REMARK  111  A    between atoms: _262  and  _264
REMARK  112  A    between atoms: _264  and  _265
REMARK  113  A    between atoms: _264  and  _267
REMARK  114  A    between atoms: _267  and  _268
REMARK  115  A    between atoms: _271  and  _273
REMARK  116  A    between atoms: _273  and  _274
REMARK  117  A    between atoms: _273  and  _276
REMARK  118  A    between atoms: _276  and  _277
REMARK  119  A    between atoms: _280  and  _282
REMARK  120  A    between atoms: _282  and  _283
REMARK  121  A    between atoms: _286  and  _288
REMARK  122  A    between atoms: _288  and  _289
REMARK  123  A    between atoms: _288  and  _291
REMARK  124  A    between atoms: _291  and  _292
REMARK  125  A    between atoms: _297  and  _298
REMARK  126  A    between atoms: _300  and  _302
REMARK  127  A    between atoms: _302  and  _303
REMARK  128  A    between atoms: _302  and  _305
REMARK  129  A    between atoms: _305  and  _306
REMARK  130  A    between atoms: _311  and  _313
REMARK  131  A    between atoms: _313  and  _314
REMARK  132  A    between atoms: _313  and  _316
REMARK  133  A    between atoms: _316  and  _317
REMARK  134  A    between atoms: _317  and  _318
REMARK  135  A    between atoms: _318  and  _319
REMARK  136  A    between atoms: _319  and  _320
REMARK  137  A    between atoms: _324  and  _326
REMARK  138  A    between atoms: _326  and  _327
REMARK  139  A    between atoms: _326  and  _329
REMARK  140  A    between atoms: _329  and  _330
REMARK  141  A    between atoms: _332  and  _334
REMARK  142  A    between atoms: _334  and  _335
REMARK  143  A    between atoms: _334  and  _337
REMARK  144  A    between atoms: _337  and  _338
REMARK  145  A    between atoms: _341  and  _343
REMARK  146  A    between atoms: _343  and  _344
REMARK  147  A    between atoms: _343  and  _346
REMARK  148  A    between atoms: _346  and  _347
REMARK  149  A    between atoms: _350  and  _352
REMARK  150  A    between atoms: _352  and  _353
REMARK  151  A    between atoms: _352  and  _355
REMARK  152  A    between atoms: _355  and  _356
REMARK  153  A    between atoms: _356  and  _357
REMARK  154  A    between atoms: _359  and  _361
REMARK  155  A    between atoms: _361  and  _362
REMARK  156  A    between atoms: _361  and  _364
REMARK  157  A    between atoms: _364  and  _365
REMARK  158  A    between atoms: _367  and  _369
REMARK  159  A    between atoms: _369  and  _370
REMARK  160  A    between atoms: _369  and  _372
REMARK  161  A    between atoms: _375  and  _377
REMARK  162  A    between atoms: _377  and  _378
REMARK  163  A    between atoms: _377  and  _380
REMARK  164  A    between atoms: _380  and  _381
REMARK  165  A    between atoms: _384  and  _386
REMARK  166  A    between atoms: _386  and  _387
REMARK  167  A    between atoms: _386  and  _389
REMARK  168  A    between atoms: _389  and  _390
REMARK  169  A    between atoms: _395  and  _397
REMARK  170  A    between atoms: _397  and  _398
REMARK  171  A    between atoms: _397  and  _400
REMARK  172  A    between atoms: _400  and  _401
REMARK  173  A    between atoms: _404  and  _406
REMARK  174  A    between atoms: _406  and  _407
REMARK  175  A    between atoms: _406  and  _409
REMARK  176  A    between atoms: _409  and  _410
REMARK  177  A    between atoms: _416  and  _418
REMARK  178  A    between atoms: _418  and  _419
REMARK  179  A    between atoms: _418  and  _421
REMARK  180  A    between atoms: _421  and  _422
REMARK  181  A    between atoms: _422  and  _423
REMARK  182  A    between atoms: _423  and  _424
REMARK  183  A    between atoms: _433  and  _435
REMARK  184  A    between atoms: _435  and  _436
REMARK  185  A    between atoms: _435  and  _438
REMARK  186  A    between atoms: _441  and  _443
REMARK  187  A    between atoms: _443  and  _444
REMARK  188  A    between atoms: _443  and  _446
REMARK  189  A    between atoms: _446  and  _447
REMARK  190  A    between atoms: _449  and  _451
REMARK  191  A    between atoms: _451  and  _452
REMARK  192  A    between atoms: _451  and  _454
REMARK  193  A    between atoms: _454  and  _455
REMARK  194  A    between atoms: _461  and  _463
REMARK  195  A    between atoms: _463  and  _464
REMARK  196  A    between atoms: _463  and  _466
REMARK  197  A    between atoms: _466  and  _467
REMARK  198  A    between atoms: _469  and  _471
REMARK  199  A    between atoms: _471  and  _472
REMARK  200  A    between atoms: _475  and  _476
REMARK  201  A    between atoms: _481  and  _483
REMARK  202  A    between atoms: _483  and  _484
REMARK  203  A    between atoms: _483  and  _486
REMARK  204  A    between atoms: _486  and  _487
REMARK  205  A    between atoms: _493  and  _495
REMARK  206  A    between atoms: _495  and  _496
REMARK  207  A    between atoms: _495  and  _498
REMARK  208  A    between atoms: _498  and  _499
REMARK  209  A    between atoms: _505  and  _507
REMARK  210  A    between atoms: _507  and  _508
REMARK  211  A    between atoms: _507  and  _510
REMARK  212  A    between atoms: _510  and  _511
REMARK  213  A    between atoms: _511  and  _512
REMARK  214  A    between atoms: _512  and  _513
REMARK  215  A    between atoms: _522  and  _524
REMARK  216  A    between atoms: _524  and  _525
REMARK  217  A    between atoms: _527  and  _529
REMARK  218  A    between atoms: _529  and  _530
REMARK  219  A    between atoms: _529  and  _532
REMARK  220  A    between atoms: _532  and  _533
REMARK  221  A    between atoms: _536  and  _538
REMARK  222  A    between atoms: _538  and  _539
REMARK  223  A    between atoms: _541  and  _543
REMARK  224  A    between atoms: _543  and  _544
REMARK  225  A    between atoms: _543  and  _546
REMARK  226  A    between atoms: _546  and  _547
REMARK  227  A    between atoms: _547  and  _548
REMARK  228  A    between atoms: _550  and  _552
REMARK  229  A    between atoms: _552  and  _553
REMARK  230  A    between atoms: _556  and  _558
REMARK  231  A    between atoms: _558  and  _559
REMARK  232  A    between atoms: _558  and  _561
REMARK  233  A    between atoms: _561  and  _562
REMARK  234  A    between atoms: _564  and  _566
REMARK  235  A    between atoms: _566  and  _567
REMARK  236  A    between atoms: _566  and  _569
REMARK  237  A    between atoms: _569  and  _570
REMARK  238  A    between atoms: _573  and  _575
REMARK  239  A    between atoms: _575  and  _576
REMARK  240  A    between atoms: _575  and  _578
REMARK  241  A    between atoms: _578  and  _579
REMARK  242  A    between atoms: _584  and  _586
REMARK  243  A    between atoms: _586  and  _587
REMARK  244  A    between atoms: _586  and  _589
REMARK  245  A    between atoms: _589  and  _590
REMARK  246  A    between atoms: _595  and  _597
REMARK  247  A    between atoms: _597  and  _598
REMARK  248  A    between atoms: _597  and  _600
REMARK  249  A    between atoms: _603  and  _605
REMARK  250  A    between atoms: _605  and  _606
REMARK  251  A    between atoms: _605  and  _608
REMARK  252  A    between atoms: _608  and  _609
REMARK  253  A    between atoms: _614  and  _615
REMARK                            x       y       z     vdW  Elec       q    Type
REMARK                         _______ _______ _______ _____ _____    ______ ____
ROOT
ATOM      1  CA  SER A   1       9.407  -3.150   6.737  0.00  0.00    +0.163 C 
ENDROOT
BRANCH   1   2
ATOM      2  N   SER A   1      10.577  -3.541   5.925  0.00  0.00    -0.237 NA
ATOM      3  H   SER A   1      11.362  -2.869   5.808  0.00  0.00    +0.142 HD
ENDBRANCH   1   2
BRANCH   1   4
ATOM      4  C   SER A   1       8.268  -2.686   5.847  0.00  0.00    +0.227 C 
ATOM      5  O   SER A   1       8.473  -2.393   4.668  0.00  0.00    -0.287 OA
ENDBRANCH   1   4
BRANCH   1   6
ATOM      6  CB  SER A   1       9.739  -2.010   7.695  0.00  0.00    +0.162 C 
BRANCH   6   7
ATOM      7  OG  SER A   1      10.258  -0.903   6.976  0.00  0.00    -0.380 OA
ATOM      8  H   SER A   1      10.469  -0.171   7.608  0.00  0.00    +0.211 HD
ENDBRANCH   6   7
ENDBRANCH   1   6
TORSDOF 4
REMARK  Name = ../refined-set-2016/4dy6/4dy6_pocket.pdb
REMARK  253 active torsions:
REMARK  status: ('A' for Active; 'I' for Inactive)
REMARK    1  A    between atoms: _1  and  _3
REMARK    2  A    between atoms: _3  and  _4
REMARK    3  A    between atoms: _3  and  _6
REMARK    4  A    between atoms: _6  and  _7
REMARK    5  A    between atoms: _7  and  _8
REMARK    6  A    between atoms: _8  and  _9
REMARK    7  A    between atoms: _9  and  _10
REMARK    8  A    between atoms: _14  and  _16
REMARK    9  A    between atoms: _16  and  _17
REMARK   10  A    between atoms: _19  and  _21
REMARK   11  A    between atoms: _21  and  _22
REMARK   12  A    between atoms: _24  and  _26
REMARK   13  A    between atoms: _26  and  _27
REMARK   14  A    between atoms: _26  and  _29
REMARK   15  A    between atoms: _29  and  _30
REMARK   16  A    between atoms: _33  and  _35
REMARK   17  A    between atoms: _35  and  _36
REMARK   18  A    between atoms: _38  and  _40
REMARK   19  A    between atoms: _40  and  _41
REMARK   20  A    between atoms: _40  and  _43
REMARK   21  A    between atoms: _43  and  _44
REMARK   22  A    between atoms: _47  and  _49
REMARK   23  A    between atoms: _49  and  _50
REMARK   24  A    between atoms: _49  and  _52
REMARK   25  A    between atoms: _52  and  _53
REMARK   26  A    between atoms: _59  and  _61
REMARK   27  A    between atoms: _61  and  _62
REMARK   28  A    between atoms: _61  and  _64
REMARK   29  A    between atoms: _64  and  _65
REMARK   30  A    between atoms: _68  and  _70
REMARK   31  A    between atoms: _70  and  _71
REMARK   32  A    between atoms: _70  and  _73
REMARK   33  A    between atoms: _73  and  _74
REMARK   34  A    between atoms: _76  and  _78
REMARK   35  A    between atoms: _78  and  _79
REMARK   36  A    between atoms: _78  and  _81
REMARK   37  A    between atoms: _81  and  _82
REMARK   38  A    between atoms: _87  and  _89
REMARK   39  A    between atoms: _89  and  _90
REMARK   40  A    between atoms: _89  and  _92
REMARK   41  A    between atoms: _92  and  _93
REMARK   42  A    between atoms: _96  and  _98
REMARK   43  A    between atoms: _98  and  _99
REMARK   44  A    between atoms: _101  and  _103
REMARK   45  A    between atoms: _103  and  _104
REMARK   46  A    between atoms: _103  and  _106
REMARK   47  A    between atoms: _106  and  _107
REMARK   48  A    between atoms: _112  and  _114
REMARK   49  A    between atoms: _114  and  _115
REMARK   50  A    between atoms: _114  and  _117
REMARK   51  A    between atoms: _117  and  _118
REMARK   52  A    between atoms: _121  and  _123
REMARK   53  A    between atoms: _123  and  _124
REMARK   54  A    between atoms: _126  and  _128
REMARK   55  A    between atoms: _128  and  _129
REMARK   56  A    between atoms: _128  and  _131
REMARK   57  A    between atoms: _131  and  _132
REMARK   58  A    between atoms: _138  and  _140
REMARK   59  A    between atoms: _140  and  _141
REMARK   60  A    between atoms: _140  and  _143
REMARK   61  A    between atoms: _143  and  _144
REMARK   62  A    between atoms: _149  and  _150
REMARK   63  A    between atoms: _152  and  _154
REMARK   64  A    between atoms: _154  and  _155
REMARK   65  A    between atoms: _158  and  _160
REMARK   66  A    between atoms: _160  and  _161
REMARK   67  A    between atoms: _160  and  _163
REMARK   68  A    between atoms: _163  and  _164
REMARK   69  A    between atoms: _167  and  _169
REMARK   70  A    between atoms: _169  and  _170
REMARK   71  A    between atoms: _169  and  _172
REMARK   72  A    between atoms: _172  and  _173
REMARK   73  A    between atoms: _178  and  _180
REMARK   74  A    between atoms: _180  and  _181
REMARK   75  A    between atoms: _180  and  _183
REMARK   76  A    between atoms: _183  and  _184
REMARK   77  A    between atoms: _184  and  _185
REMARK   78  A    between atoms: _188  and  _190
REMARK   79  A    between atoms: _190  and  _191
REMARK   80  A    between atoms: _190  and  _193
REMARK   81  A    between atoms: _193  and  _194
REMARK   82  A    between atoms: _196  and  _198
REMARK   83  A    between atoms: _198  and  _199
REMARK   84  A    between atoms: _198  and  _201
REMARK   85  A    between atoms: _201  and  _202
REMARK   86  A    between atoms: _205  and  _207
REMARK   87  A    between atoms: _207  and  _208
REMARK   88  A    between atoms: _207  and  _210
REMARK   89  A    between atoms: _210  and  _211
REMARK   90  A    between atoms: _211  and  _212
REMARK   91  A    between atoms: _212  and  _213
REMARK   92  A    between atoms: _213  and  _214
REMARK   93  A    between atoms: _218  and  _220
REMARK   94  A    between atoms: _220  and  _221
REMARK   95  A    between atoms: _220  and  _223
REMARK   96  A    between atoms: _225  and  _227
REMARK   97  A    between atoms: _227  and  _228
REMARK   98  A    between atoms: _227  and  _230
REMARK   99  A    between atoms: _230  and  _231
REMARK  100  A    between atoms: _233  and  _235
REMARK  101  A    between atoms: _235  and  _236
REMARK  102  A    between atoms: _235  and  _238
REMARK  103  A    between atoms: _238  and  _239
REMARK  104  A    between atoms: _243  and  _244
REMARK  105  A    between atoms: _249  and  _251
REMARK  106  A    between atoms: _251  and  _252
REMARK  107  A    between atoms: _251  and  _254
REMARK  108  A    between atoms: _254  and  _255
REMARK  109  A    between atoms: _257  and  _259
REMARK  110  A    between atoms: _259  and  _260
REMARK  111  A    between atoms: _262  and  _264
REMARK  112  A    between atoms: _264  and  _265
REMARK  113  A    between atoms: _264  and  _267
REMARK  114  A    between atoms: _267  and  _268
REMARK  115  A    between atoms: _271  and  _273
REMARK  116  A    between atoms: _273  and  _274
REMARK  117  A    between atoms: _273  and  _276
REMARK  118  A    between atoms: _276  and  _277
REMARK  119  A    between atoms: _280  and  _282
REMARK  120  A    between atoms: _282  and  _283
REMARK  121  A    between atoms: _286  and  _288
REMARK  122  A    between atoms: _288  and  _289
REMARK  123  A    between atoms: _288  and  _291
REMARK  124  A    between atoms: _291  and  _292
REMARK  125  A    between atoms: _297  and  _298
REMARK  126  A    between atoms: _300  and  _302
REMARK  127  A    between atoms: _302  and  _303
REMARK  128  A    between atoms: _302  and  _305
REMARK  129  A    between atoms: _305  and  _306
REMARK  130  A    between atoms: _311  and  _313
REMARK  131  A    between atoms: _313  and  _314
REMARK  132  A    between atoms: _313  and  _316
REMARK  133  A    between atoms: _316  and  _317
REMARK  134  A    between atoms: _317  and  _318
REMARK  135  A    between atoms: _318  and  _319
REMARK  136  A    between atoms: _319  and  _320
REMARK  137  A    between atoms: _324  and  _326
REMARK  138  A    between atoms: _326  and  _327
REMARK  139  A    between atoms: _326  and  _329
REMARK  140  A    between atoms: _329  and  _330
REMARK  141  A    between atoms: _332  and  _334
REMARK  142  A    between atoms: _334  and  _335
REMARK  143  A    between atoms: _334  and  _337
REMARK  144  A    between atoms: _337  and  _338
REMARK  145  A    between atoms: _341  and  _343
REMARK  146  A    between atoms: _343  and  _344
REMARK  147  A    between atoms: _343  and  _346
REMARK  148  A    between atoms: _346  and  _347
REMARK  149  A    between atoms: _350  and  _352
REMARK  150  A    between atoms: _352  and  _353
REMARK  151  A    between atoms: _352  and  _355
REMARK  152  A    between atoms: _355  and  _356
REMARK  153  A    between atoms: _356  and  _357
REMARK  154  A    between atoms: _359  and  _361
REMARK  155  A    between atoms: _361  and  _362
REMARK  156  A    between atoms: _361  and  _364
REMARK  157  A    between atoms: _364  and  _365
REMARK  158  A    between atoms: _367  and  _369
REMARK  159  A    between atoms: _369  and  _370
REMARK  160  A    between atoms: _369  and  _372
REMARK  161  A    between atoms: _375  and  _377
REMARK  162  A    between atoms: _377  and  _378
REMARK  163  A    between atoms: _377  and  _380
REMARK  164  A    between atoms: _380  and  _381
REMARK  165  A    between atoms: _384  and  _386
REMARK  166  A    between atoms: _386  and  _387
REMARK  167  A    between atoms: _386  and  _389
REMARK  168  A    between atoms: _389  and  _390
REMARK  169  A    between atoms: _395  and  _397
REMARK  170  A    between atoms: _397  and  _398
REMARK  171  A    between atoms: _397  and  _400
REMARK  172  A    between atoms: _400  and  _401
REMARK  173  A    between atoms: _404  and  _406
REMARK  174  A    between atoms: _406  and  _407
REMARK  175  A    between atoms: _406  and  _409
REMARK  176  A    between atoms: _409  and  _410
REMARK  177  A    between atoms: _416  and  _418
REMARK  178  A    between atoms: _418  and  _419
REMARK  179  A    between atoms: _418  and  _421
REMARK  180  A    between atoms: _421  and  _422
REMARK  181  A    between atoms: _422  and  _423
REMARK  182  A    between atoms: _423  and  _424
REMARK  183  A    between atoms: _433  and  _435
REMARK  184  A    between atoms: _435  and  _436
REMARK  185  A    between atoms: _435  and  _438
REMARK  186  A    between atoms: _441  and  _443
REMARK  187  A    between atoms: _443  and  _444
REMARK  188  A    between atoms: _443  and  _446
REMARK  189  A    between atoms: _446  and  _447
REMARK  190  A    between atoms: _449  and  _451
REMARK  191  A    between atoms: _451  and  _452
REMARK  192  A    between atoms: _451  and  _454
REMARK  193  A    between atoms: _454  and  _455
REMARK  194  A    between atoms: _461  and  _463
REMARK  195  A    between atoms: _463  and  _464
REMARK  196  A    between atoms: _463  and  _466
REMARK  197  A    between atoms: _466  and  _467
REMARK  198  A    between atoms: _469  and  _471
REMARK  199  A    between atoms: _471  and  _472
REMARK  200  A    between atoms: _475  and  _476
REMARK  201  A    between atoms: _481  and  _483
REMARK  202  A    between atoms: _483  and  _484
REMARK  203  A    between atoms: _483  and  _486
REMARK  204  A    between atoms: _486  and  _487
REMARK  205  A    between atoms: _493  and  _495
REMARK  206  A    between atoms: _495  and  _496
REMARK  207  A    between atoms: _495  and  _498
REMARK  208  A    between atoms: _498  and  _499
REMARK  209  A    between atoms: _505  and  _507
REMARK  210  A    between atoms: _507  and  _508
REMARK  211  A    between atoms: _507  and  _510
REMARK  212  A    between atoms: _510  and  _511
REMARK  213  A    between atoms: _511  and  _512
REMARK  214  A    between atoms: _512  and  _513
REMARK  215  A    between atoms: _522  and  _524
REMARK  216  A    between atoms: _524  and  _525
REMARK  217  A    between atoms: _527  and  _529
REMARK  218  A    between atoms: _529  and  _530
REMARK  219  A    between atoms: _529  and  _532
REMARK  220  A    between atoms: _532  and  _533
REMARK  221  A    between atoms: _536  and  _538
REMARK  222  A    between atoms: _538  and  _539
REMARK  223  A    between atoms: _541  and  _543
REMARK  224  A    between atoms: _543  and  _544
REMARK  225  A    between atoms: _543  and  _546
REMARK  226  A    between atoms: _546  and  _547
REMARK  227  A    between atoms: _547  and  _548
REMARK  228  A    between atoms: _550  and  _552
REMARK  229  A    between atoms: _552  and  _553
REMARK  230  A    between atoms: _556  and  _558
REMARK  231  A    between atoms: _558  and  _559
REMARK  232  A    between atoms: _558  and  _561
REMARK  233  A    between atoms: _561  and  _562
REMARK  234  A    between atoms: _564  and  _566
REMARK  235  A    between atoms: _566  and  _567
REMARK  236  A    between atoms: _566  and  _569
REMARK  237  A    between atoms: _569  and  _570
REMARK  238  A    between atoms: _573  and  _575
REMARK  239  A    between atoms: _575  and  _576
REMARK  240  A    between atoms: _575  and  _578
REMARK  241  A    between atoms: _578  and  _579
REMARK  242  A    between atoms: _584  and  _586
REMARK  243  A    between atoms: _586  and  _587
REMARK  244  A    between atoms: _586  and  _589
REMARK  245  A    between atoms: _589  and  _590
REMARK  246  A    between atoms: _595  and  _597
REMARK  247  A    between atoms: _597  and  _598
REMARK  248  A    between atoms: _597  and  _600
REMARK  249  A    between atoms: _603  and  _605
REMARK  250  A    between atoms: _605  and  _606
REMARK  251  A    between atoms: _605  and  _608
REMARK  252  A    between atoms: _608  and  _609
REMARK  253  A    between atoms: _614  and  _615
REMARK                            x       y       z     vdW  Elec       q    Type
REMARK                         _______ _______ _______ _____ _____    ______ ____
ROOT
ATOM      1  C   PRO A   2      11.395  -0.233  10.735  0.00  0.00    +0.241 C 
ATOM      2  O   PRO A   2      10.566  -0.903  11.378  0.00  0.00    -0.273 OA
ATOM      3  N   PHE A   3      12.473  -0.752  10.145  0.00  0.00    -0.298 N 
ATOM      4  H   PHE A   3      13.144  -0.108   9.680  0.00  0.00    +0.150 HD
ENDROOT
BRANCH   1  10
ATOM      5  C   GLY A   1       9.250   1.524   9.179  0.00  0.00    +0.243 C 
ATOM      6  N   PRO A   2       9.819   1.648  10.394  0.00  0.00    -0.272 N 
ATOM      7  CD  PRO A   2       9.197   2.141  11.639  0.00  0.00    +0.094 C 
ATOM      8  CG  PRO A   2      10.321   2.098  12.650  0.00  0.00    +0.024 C 
ATOM      9  CB  PRO A   2      11.601   2.012  11.878  0.00  0.00    +0.031 C 
ATOM     10  CA  PRO A   2      11.220   1.283  10.585  0.00  0.00    +0.152 C 
ATOM     11  O   GLY A   1       9.874   1.145   8.178  0.00  0.00    -0.273 OA
BRANCH   5  12
ATOM     12  CA  GLY A   1       7.786   1.914   9.040  0.00  0.00    +0.170 C 
BRANCH  12  13
ATOM     13  N   GLY A   1       7.721   2.708   7.812  0.00  0.00    -0.236 NA
ATOM     14  H   GLY A   1       8.340   3.541   7.743  0.00  0.00    +0.142 HD
ENDBRANCH  12  13
ENDBRANCH   5  12
ENDBRANCH   1  10
BRANCH   3  15
ATOM     15  CA  PHE A   3      12.750  -2.178  10.124  0.00  0.00    +0.141 C 
BRANCH  15  16
ATOM     16  C   PHE A   3      13.769  -2.475  11.199  0.00  0.00    +0.227 C 
ATOM     17  O   PHE A   3      14.855  -1.918  11.175  0.00  0.00    -0.286 OA
ENDBRANCH  15  16
BRANCH  15  18
ATOM     18  CB  PHE A   3      13.292  -2.570   8.746  0.00  0.00    +0.054 C 
BRANCH  18  19
ATOM     19  CG  PHE A   3      13.673  -4.017   8.614  0.00  0.00    -0.020 A 
ATOM     20  CD2 PHE A   3      15.012  -4.398   8.567  0.00  0.00    -0.004 A 
ATOM     21  CE2 PHE A   3      15.374  -5.744   8.427  0.00  0.00    -0.000 A 
ATOM     22  CZ  PHE A   3      14.411  -6.704   8.311  0.00  0.00    -0.000 A 
ATOM     23  CE1 PHE A   3      13.067  -6.335   8.356  0.00  0.00    -0.000 A 
ATOM     24  CD1 PHE A   3      12.705  -4.996   8.504  0.00  0.00    -0.004 A 
ENDBRANCH  18  19
ENDBRANCH  15  18
ENDBRANCH   3  15
TORSDOF 7
REMARK  Name = ../refined-set-2016/4dy6/4dy6_pocket.pdb
REMARK  253 active torsions:
REMARK  status: ('A' for Active; 'I' for Inactive)
REMARK    1  A    between atoms: _1  and  _3
REMARK    2  A    between atoms: _3  and  _4
REMARK    3  A    between atoms: _3  and  _6
REMARK    4  A    between atoms: _6  and  _7
REMARK    5  A    between atoms: _7  and  _8
REMARK    6  A    between atoms: _8  and  _9
REMARK    7  A    between atoms: _9  and  _10
REMARK    8  A    between atoms: _14  and  _16
REMARK    9  A    between atoms: _16  and  _17
REMARK   10  A    between atoms: _19  and  _21
REMARK   11  A    between atoms: _21  and  _22
REMARK   12  A    between atoms: _24  and  _26
REMARK   13  A    between atoms: _26  and  _27
REMARK   14  A    between atoms: _26  and  _29
REMARK   15  A    between atoms: _29  and  _30
REMARK   16  A    between atoms: _33  and  _35
REMARK   17  A    between atoms: _35  and  _36
REMARK   18  A    between atoms: _38  and  _40
REMARK   19  A    between atoms: _40  and  _41
REMARK   20  A    between atoms: _40  and  _43
REMARK   21  A    between atoms: _43  and  _44
REMARK   22  A    between atoms: _47  and  _49
REMARK   23  A    between atoms: _49  and  _50
REMARK   24  A    between atoms: _49  and  _52
REMARK   25  A    between atoms: _52  and  _53
REMARK   26  A    between atoms: _59  and  _61
REMARK   27  A    between atoms: _61  and  _62
REMARK   28  A    between atoms: _61  and  _64
REMARK   29  A    between atoms: _64  and  _65
REMARK   30  A    between atoms: _68  and  _70
REMARK   31  A    between atoms: _70  and  _71
REMARK   32  A    between atoms: _70  and  _73
REMARK   33  A    between atoms: _73  and  _74
REMARK   34  A    between atoms: _76  and  _78
REMARK   35  A    between atoms: _78  and  _79
REMARK   36  A    between atoms: _78  and  _81
REMARK   37  A    between atoms: _81  and  _82
REMARK   38  A    between atoms: _87  and  _89
REMARK   39  A    between atoms: _89  and  _90
REMARK   40  A    between atoms: _89  and  _92
REMARK   41  A    between atoms: _92  and  _93
REMARK   42  A    between atoms: _96  and  _98
REMARK   43  A    between atoms: _98  and  _99
REMARK   44  A    between atoms: _101  and  _103
REMARK   45  A    between atoms: _103  and  _104
REMARK   46  A    between atoms: _103  and  _106
REMARK   47  A    between atoms: _106  and  _107
REMARK   48  A    between atoms: _112  and  _114
REMARK   49  A    between atoms: _114  and  _115
REMARK   50  A    between atoms: _114  and  _117
REMARK   51  A    between atoms: _117  and  _118
REMARK   52  A    between atoms: _121  and  _123
REMARK   53  A    between atoms: _123  and  _124
REMARK   54  A    between atoms: _126  and  _128
REMARK   55  A    between atoms: _128  and  _129
REMARK   56  A    between atoms: _128  and  _131
REMARK   57  A    between atoms: _131  and  _132
REMARK   58  A    between atoms: _138  and  _140
REMARK   59  A    between atoms: _140  and  _141
REMARK   60  A    between atoms: _140  and  _143
REMARK   61  A    between atoms: _143  and  _144
REMARK   62  A    between atoms: _149  and  _150
REMARK   63  A    between atoms: _152  and  _154
REMARK   64  A    between atoms: _154  and  _155
REMARK   65  A    between atoms: _158  and  _160
REMARK   66  A    between atoms: _160  and  _161
REMARK   67  A    between atoms: _160  and  _163
REMARK   68  A    between atoms: _163  and  _164
REMARK   69  A    between atoms: _167  and  _169
REMARK   70  A    between atoms: _169  and  _170
REMARK   71  A    between atoms: _169  and  _172
REMARK   72  A    between atoms: _172  and  _173
REMARK   73  A    between atoms: _178  and  _180
REMARK   74  A    between atoms: _180  and  _181
REMARK   75  A    between atoms: _180  and  _183
REMARK   76  A    between atoms: _183  and  _184
REMARK   77  A    between atoms: _184  and  _185
REMARK   78  A    between atoms: _188  and  _190
REMARK   79  A    between atoms: _190  and  _191
REMARK   80  A    between atoms: _190  and  _193
REMARK   81  A    between atoms: _193  and  _194
REMARK   82  A    between atoms: _196  and  _198
REMARK   83  A    between atoms: _198  and  _199
REMARK   84  A    between atoms: _198  and  _201
REMARK   85  A    between atoms: _201  and  _202
REMARK   86  A    between atoms: _205  and  _207
REMARK   87  A    between atoms: _207  and  _208
REMARK   88  A    between atoms: _207  and  _210
REMARK   89  A    between atoms: _210  and  _211
REMARK   90  A    between atoms: _211  and  _212
REMARK   91  A    between atoms: _212  and  _213
REMARK   92  A    between atoms: _213  and  _214
REMARK   93  A    between atoms: _218  and  _220
REMARK   94  A    between atoms: _220  and  _221
REMARK   95  A    between atoms: _220  and  _223
REMARK   96  A    between atoms: _225  and  _227
REMARK   97  A    between atoms: _227  and  _228
REMARK   98  A    between atoms: _227  and  _230
REMARK   99  A    between atoms: _230  and  _231
REMARK  100  A    between atoms: _233  and  _235
REMARK  101  A    between atoms: _235  and  _236
REMARK  102  A    between atoms: _235  and  _238
REMARK  103  A    between atoms: _238  and  _239
REMARK  104  A    between atoms: _243  and  _244
REMARK  105  A    between atoms: _249  and  _251
REMARK  106  A    between atoms: _251  and  _252
REMARK  107  A    between atoms: _251  and  _254
REMARK  108  A    between atoms: _254  and  _255
REMARK  109  A    between atoms: _257  and  _259
REMARK  110  A    between atoms: _259  and  _260
REMARK  111  A    between atoms: _262  and  _264
REMARK  112  A    between atoms: _264  and  _265
REMARK  113  A    between atoms: _264  and  _267
REMARK  114  A    between atoms: _267  and  _268
REMARK  115  A    between atoms: _271  and  _273
REMARK  116  A    between atoms: _273  and  _274
REMARK  117  A    between atoms: _273  and  _276
REMARK  118  A    between atoms: _276  and  _277
REMARK  119  A    between atoms: _280  and  _282
REMARK  120  A    between atoms: _282  and  _283
REMARK  121  A    between atoms: _286  and  _288
REMARK  122  A    between atoms: _288  and  _289
REMARK  123  A    between atoms: _288  and  _291
REMARK  124  A    between atoms: _291  and  _292
REMARK  125  A    between atoms: _297  and  _298
REMARK  126  A    between atoms: _300  and  _302
REMARK  127  A    between atoms: _302  and  _303
REMARK  128  A    between atoms: _302  and  _305
REMARK  129  A    between atoms: _305  and  _306
REMARK  130  A    between atoms: _311  and  _313
REMARK  131  A    between atoms: _313  and  _314
REMARK  132  A    between atoms: _313  and  _316
REMARK  133  A    between atoms: _316  and  _317
REMARK  134  A    between atoms: _317  and  _318
REMARK  135  A    between atoms: _318  and  _319
REMARK  136  A    between atoms: _319  and  _320
REMARK  137  A    between atoms: _324  and  _326
REMARK  138  A    between atoms: _326  and  _327
REMARK  139  A    between atoms: _326  and  _329
REMARK  140  A    between atoms: _329  and  _330
REMARK  141  A    between atoms: _332  and  _334
REMARK  142  A    between atoms: _334  and  _335
REMARK  143  A    between atoms: _334  and  _337
REMARK  144  A    between atoms: _337  and  _338
REMARK  145  A    between atoms: _341  and  _343
REMARK  146  A    between atoms: _343  and  _344
REMARK  147  A    between atoms: _343  and  _346
REMARK  148  A    between atoms: _346  and  _347
REMARK  149  A    between atoms: _350  and  _352
REMARK  150  A    between atoms: _352  and  _353
REMARK  151  A    between atoms: _352  and  _355
REMARK  152  A    between atoms: _355  and  _356
REMARK  153  A    between atoms: _356  and  _357
REMARK  154  A    between atoms: _359  and  _361
REMARK  155  A    between atoms: _361  and  _362
REMARK  156  A    between atoms: _361  and  _364
REMARK  157  A    between atoms: _364  and  _365
REMARK  158  A    between atoms: _367  and  _369
REMARK  159  A    between atoms: _369  and  _370
REMARK  160  A    between atoms: _369  and  _372
REMARK  161  A    between atoms: _375  and  _377
REMARK  162  A    between atoms: _377  and  _378
REMARK  163  A    between atoms: _377  and  _380
REMARK  164  A    between atoms: _380  and  _381
REMARK  165  A    between atoms: _384  and  _386
REMARK  166  A    between atoms: _386  and  _387
REMARK  167  A    between atoms: _386  and  _389
REMARK  168  A    between atoms: _389  and  _390
REMARK  169  A    between atoms: _395  and  _397
REMARK  170  A    between atoms: _397  and  _398
REMARK  171  A    between atoms: _397  and  _400
REMARK  172  A    between atoms: _400  and  _401
REMARK  173  A    between atoms: _404  and  _406
REMARK  174  A    between atoms: _406  and  _407
REMARK  175  A    between atoms: _406  and  _409
REMARK  176  A    between atoms: _409  and  _410
REMARK  177  A    between atoms: _416  and  _418
REMARK  178  A    between atoms: _418  and  _419
REMARK  179  A    between atoms: _418  and  _421
REMARK  180  A    between atoms: _421  and  _422
REMARK  181  A    between atoms: _422  and  _423
REMARK  182  A    between atoms: _423  and  _424
REMARK  183  A    between atoms: _433  and  _435
REMARK  184  A    between atoms: _435  and  _436
REMARK  185  A    between atoms: _435  and  _438
REMARK  186  A    between atoms: _441  and  _443
REMARK  187  A    between atoms: _443  and  _444
REMARK  188  A    between atoms: _443  and  _446
REMARK  189  A    between atoms: _446  and  _447
REMARK  190  A    between atoms: _449  and  _451
REMARK  191  A    between atoms: _451  and  _452
REMARK  192  A    between atoms: _451  and  _454
REMARK  193  A    between atoms: _454  and  _455
REMARK  194  A    between atoms: _461  and  _463
REMARK  195  A    between atoms: _463  and  _464
REMARK  196  A    between atoms: _463  and  _466
REMARK  197  A    between atoms: _466  and  _467
REMARK  198  A    between atoms: _469  and  _471
REMARK  199  A    between atoms: _471  and  _472
REMARK  200  A    between atoms: _475  and  _476
REMARK  201  A    between atoms: _481  and  _483
REMARK  202  A    between atoms: _483  and  _484
REMARK  203  A    between atoms: _483  and  _486
REMARK  204  A    between atoms: _486  and  _487
REMARK  205  A    between atoms: _493  and  _495
REMARK  206  A    between atoms: _495  and  _496
REMARK  207  A    between atoms: _495  and  _498
REMARK  208  A    between atoms: _498  and  _499
REMARK  209  A    between atoms: _505  and  _507
REMARK  210  A    between atoms: _507  and  _508
REMARK  211  A    between atoms: _507  and  _510
REMARK  212  A    between atoms: _510  and  _511
REMARK  213  A    between atoms: _511  and  _512
REMARK  214  A    between atoms: _512  and  _513
REMARK  215  A    between atoms: _522  and  _524
REMARK  216  A    between atoms: _524  and  _525
REMARK  217  A    between atoms: _527  and  _529
REMARK  218  A    between atoms: _529  and  _530
REMARK  219  A    between atoms: _529  and  _532
REMARK  220  A    between atoms: _532  and  _533
REMARK  221  A    between atoms: _536  and  _538
REMARK  222  A    between atoms: _538  and  _539
REMARK  223  A    between atoms: _541  and  _543
REMARK  224  A    between atoms: _543  and  _544
REMARK  225  A    between atoms: _543  and  _546
REMARK  226  A    between atoms: _546  and  _547
REMARK  227  A    between atoms: _547  and  _548
REMARK  228  A    between atoms: _550  and  _552
REMARK  229  A    between atoms: _552  and  _553
REMARK  230  A    between atoms: _556  and  _558
REMARK  231  A    between atoms: _558  and  _559
REMARK  232  A    between atoms: _558  and  _561
REMARK  233  A    between atoms: _561  and  _562
REMARK  234  A    between atoms: _564  and  _566
REMARK  235  A    between atoms: _566  and  _567
REMARK  236  A    between atoms: _566  and  _569
REMARK  237  A    between atoms: _569  and  _570
REMARK  238  A    between atoms: _573  and  _575
REMARK  239  A    between atoms: _575  and  _576
REMARK  240  A    between atoms: _575  and  _578
REMARK  241  A    between atoms: _578  and  _579
REMARK  242  A    between atoms: _584  and  _586
REMARK  243  A    between atoms: _586  and  _587
REMARK  244  A    between atoms: _586  and  _589
REMARK  245  A    between atoms: _589  and  _590
REMARK  246  A    between atoms: _595  and  _597
REMARK  247  A    between atoms: _597  and  _598
REMARK  248  A    between atoms: _597  and  _600
REMARK  249  A    between atoms: _603  and  _605
REMARK  250  A    between atoms: _605  and  _606
REMARK  251  A    between atoms: _605  and  _608
REMARK  252  A    between atoms: _608  and  _609
REMARK  253  A    between atoms: _614  and  _615
REMARK                            x       y       z     vdW  Elec       q    Type
REMARK                         _______ _______ _______ _____ _____    ______ ____
ROOT
ATOM      1  CA  ARG A   2      18.250  -1.718  12.178  0.00  0.00    +0.149 C 
ENDROOT
BRANCH   1   4
ATOM      2  C   PHE A   1      18.637  -4.100  12.616  0.00  0.00    +0.239 C 
ATOM      3  O   PHE A   1      17.439  -4.412  12.625  0.00  0.00    -0.274 OA
ATOM      4  N   ARG A   2      19.095  -2.868  12.414  0.00  0.00    -0.297 N 
ATOM      5  H   ARG A   2      20.125  -2.722  12.426  0.00  0.00    +0.150 HD
BRANCH   2   6
ATOM      6  CA  PHE A   1      19.703  -5.166  12.721  0.00  0.00    +0.149 C 
BRANCH   6   7
ATOM      7  N   PHE A   1      19.604  -5.935  13.963  0.00  0.00    -0.238 NA
ATOM      8  H   PHE A   1      18.963  -6.754  13.995  0.00  0.00    +0.142 HD
ENDBRANCH   6   7
BRANCH   6   9
ATOM      9  CB  PHE A   1      19.575  -6.067  11.481  0.00  0.00    +0.053 C 
BRANCH   9  10
ATOM     10  CG  PHE A   1      19.736  -5.318  10.188  0.00  0.00    -0.020 A 
ATOM     11  CD2 PHE A   1      18.665  -4.657   9.608  0.00  0.00    -0.004 A 
ATOM     12  CE2 PHE A   1      18.822  -3.930   8.432  0.00  0.00    -0.000 A 
ATOM     13  CZ  PHE A   1      20.060  -3.889   7.808  0.00  0.00    -0.000 A 
ATOM     14  CE1 PHE A   1      21.124  -4.555   8.357  0.00  0.00    -0.000 A 
ATOM     15  CD1 PHE A   1      20.964  -5.255   9.560  0.00  0.00    -0.004 A 
ENDBRANCH   9  10
ENDBRANCH   6   9
ENDBRANCH   2   6
ENDBRANCH   1   4
BRANCH   1  16
ATOM     16  C   ARG A   2      18.675  -1.106  10.848  0.00  0.00    +0.241 C 
ATOM     17  O   ARG A   2      19.837  -0.783  10.663  0.00  0.00    -0.273 OA
ATOM     18  N   GLY A   3      17.739  -0.934   9.925  0.00  0.00    -0.295 N 
ATOM     19  H   GLY A   3      16.744  -1.116  10.166  0.00  0.00    +0.150 HD
BRANCH  18  20
ATOM     20  CA  GLY A   3      18.082  -0.492   8.572  0.00  0.00    +0.176 C 
BRANCH  20  21
ATOM     21  C   GLY A   3      16.926  -0.625   7.610  0.00  0.00    +0.243 C 
ATOM     22  O   GLY A   3      15.787  -0.739   8.046  0.00  0.00    -0.273 OA
ATOM     23  N   ASP A   4      17.208  -0.614   6.303  0.00  0.00    -0.296 N 
ATOM     24  H   ASP A   4      18.195  -0.490   6.000  0.00  0.00    +0.150 HD
BRANCH  23  25
ATOM     25  CA  ASP A   4      16.150  -0.774   5.271  0.00  0.00    +0.160 C 
BRANCH  25  26
ATOM     26  C   ASP A   4      15.701  -2.228   5.092  0.00  0.00    +0.241 C 
ATOM     27  N   GLY A   5      16.607  -3.184   5.286  0.00  0.00    -0.296 N 
ATOM     28  H   GLY A   5      17.567  -2.919   5.586  0.00  0.00    +0.150 HD
ATOM     29  O   ASP A   4      14.555  -2.470   4.723  0.00  0.00    -0.273 OA
BRANCH  27  30
ATOM     30  CA  GLY A   5      16.286  -4.607   5.087  0.00  0.00    +0.163 C 
BRANCH  30  31
ATOM     31  C   GLY A   5      17.473  -5.556   4.939  0.00  0.00    +0.229 C 
ATOM     32  O   GLY A   5      18.621  -5.153   5.086  0.00  0.00    -0.286 OA
ENDBRANCH  30  31
ENDBRANCH  27  30
ENDBRANCH  25  26
BRANCH  25  33
ATOM     33  CB  ASP A   4      16.606  -0.256   3.908  0.00  0.00    +0.143 C 
BRANCH  33  34
ATOM     34  CG  ASP A   4      16.665   1.266   3.834  0.00  0.00    +0.367 C 
ATOM     35  OD2 ASP A   4      16.195   1.935   4.755  0.00  0.00    -0.246 OA
ATOM     36  OD1 ASP A   4      17.199   1.795   2.852  0.00  0.00    -0.246 OA
ENDBRANCH  33  34
ENDBRANCH  25  33
ENDBRANCH  23  25
ENDBRANCH  20  21
ENDBRANCH  18  20
ENDBRANCH   1  16
BRANCH   1  37
ATOM     37  CB  ARG A   2      18.435  -0.688  13.314  0.00  0.00    +0.033 C 
BRANCH  37  38
ATOM     38  CG  ARG A   2      18.370  -1.316  14.701  0.00  0.00    +0.045 C 
BRANCH  38  39
ATOM     39  CD  ARG A   2      18.130  -0.291  15.812  0.00  0.00    +0.174 C 
BRANCH  39  40
ATOM     40  NE  ARG A   2      17.952  -0.940  17.113  0.00  0.00    -0.265 N 
ATOM     41  CZ  ARG A   2      18.979  -1.397  17.839  0.00  0.00    +0.342 C 
ATOM     42  NH2 ARG A   2      18.762  -1.966  19.018  0.00  0.00    -0.292 N 
ATOM     43 HH21 ARG A   2      19.562  -2.320  19.580  0.00  0.00    +0.255 HD
ATOM     44 HH22 ARG A   2      17.791  -2.058  19.380  0.00  0.00    +0.255 HD
ATOM     45  NH1 ARG A   2      20.226  -1.357  17.372  0.00  0.00    -0.292 N 
ATOM     46 HH11 ARG A   2      21.010  -1.717  17.952  0.00  0.00    +0.255 HD
ATOM     47 HH12 ARG A   2      20.415  -0.965  16.427  0.00  0.00    +0.255 HD
ATOM     48  HE  ARG A   2      16.988  -1.050  17.488  0.00  0.00    +0.259 HD
ENDBRANCH  39  40
ENDBRANCH  38  39
ENDBRANCH  37  38
ENDBRANCH   1  37
TORSDOF 18
REMARK  Name = ../refined-set-2016/4dy6/4dy6_pocket.pdb
REMARK  253 active torsions:
REMARK  status: ('A' for Active; 'I' for Inactive)
REMARK    1  A    between atoms: _1  and  _3
REMARK    2  A    between atoms: _3  and  _4
REMARK    3  A    between atoms: _3  and  _6
REMARK    4  A    between atoms: _6  and  _7
REMARK    5  A    between atoms: _7  and  _8
REMARK    6  A    between atoms: _8  and  _9
REMARK    7  A    between atoms: _9  and  _10
REMARK    8  A    between atoms: _14  and  _16
REMARK    9  A    between atoms: _16  and  _17
REMARK   10  A    between atoms: _19  and  _21
REMARK   11  A    between atoms: _21  and  _22
REMARK   12  A    between atoms: _24  and  _26
REMARK   13  A    between atoms: _26  and  _27
REMARK   14  A    between atoms: _26  and  _29
REMARK   15  A    between atoms: _29  and  _30
REMARK   16  A    between atoms: _33  and  _35
REMARK   17  A    between atoms: _35  and  _36
REMARK   18  A    between atoms: _38  and  _40
REMARK   19  A    between atoms: _40  and  _41
REMARK   20  A    between atoms: _40  and  _43
REMARK   21  A    between atoms: _43  and  _44
REMARK   22  A    between atoms: _47  and  _49
REMARK   23  A    between atoms: _49  and  _50
REMARK   24  A    between atoms: _49  and  _52
REMARK   25  A    between atoms: _52  and  _53
REMARK   26  A    between atoms: _59  and  _61
REMARK   27  A    between atoms: _61  and  _62
REMARK   28  A    between atoms: _61  and  _64
REMARK   29  A    between atoms: _64  and  _65
REMARK   30  A    between atoms: _68  and  _70
REMARK   31  A    between atoms: _70  and  _71
REMARK   32  A    between atoms: _70  and  _73
REMARK   33  A    between atoms: _73  and  _74
REMARK   34  A    between atoms: _76  and  _78
REMARK   35  A    between atoms: _78  and  _79
REMARK   36  A    between atoms: _78  and  _81
REMARK   37  A    between atoms: _81  and  _82
REMARK   38  A    between atoms: _87  and  _89
REMARK   39  A    between atoms: _89  and  _90
REMARK   40  A    between atoms: _89  and  _92
REMARK   41  A    between atoms: _92  and  _93
REMARK   42  A    between atoms: _96  and  _98
REMARK   43  A    between atoms: _98  and  _99
REMARK   44  A    between atoms: _101  and  _103
REMARK   45  A    between atoms: _103  and  _104
REMARK   46  A    between atoms: _103  and  _106
REMARK   47  A    between atoms: _106  and  _107
REMARK   48  A    between atoms: _112  and  _114
REMARK   49  A    between atoms: _114  and  _115
REMARK   50  A    between atoms: _114  and  _117
REMARK   51  A    between atoms: _117  and  _118
REMARK   52  A    between atoms: _121  and  _123
REMARK   53  A    between atoms: _123  and  _124
REMARK   54  A    between atoms: _126  and  _128
REMARK   55  A    between atoms: _128  and  _129
REMARK   56  A    between atoms: _128  and  _131
REMARK   57  A    between atoms: _131  and  _132
REMARK   58  A    between atoms: _138  and  _140
REMARK   59  A    between atoms: _140  and  _141
REMARK   60  A    between atoms: _140  and  _143
REMARK   61  A    between atoms: _143  and  _144
REMARK   62  A    between atoms: _149  and  _150
REMARK   63  A    between atoms: _152  and  _154
REMARK   64  A    between atoms: _154  and  _155
REMARK   65  A    between atoms: _158  and  _160
REMARK   66  A    between atoms: _160  and  _161
REMARK   67  A    between atoms: _160  and  _163
REMARK   68  A    between atoms: _163  and  _164
REMARK   69  A    between atoms: _167  and  _169
REMARK   70  A    between atoms: _169  and  _170
REMARK   71  A    between atoms: _169  and  _172
REMARK   72  A    between atoms: _172  and  _173
REMARK   73  A    between atoms: _178  and  _180
REMARK   74  A    between atoms: _180  and  _181
REMARK   75  A    between atoms: _180  and  _183
REMARK   76  A    between atoms: _183  and  _184
REMARK   77  A    between atoms: _184  and  _185
REMARK   78  A    between atoms: _188  and  _190
REMARK   79  A    between atoms: _190  and  _191
REMARK   80  A    between atoms: _190  and  _193
REMARK   81  A    between atoms: _193  and  _194
REMARK   82  A    between atoms: _196  and  _198
REMARK   83  A    between atoms: _198  and  _199
REMARK   84  A    between atoms: _198  and  _201
REMARK   85  A    between atoms: _201  and  _202
REMARK   86  A    between atoms: _205  and  _207
REMARK   87  A    between atoms: _207  and  _208
REMARK   88  A    between atoms: _207  and  _210
REMARK   89  A    between atoms: _210  and  _211
REMARK   90  A    between atoms: _211  and  _212
REMARK   91  A    between atoms: _212  and  _213
REMARK   92  A    between atoms: _213  and  _214
REMARK   93  A    between atoms: _218  and  _220
REMARK   94  A    between atoms: _220  and  _221
REMARK   95  A    between atoms: _220  and  _223
REMARK   96  A    between atoms: _225  and  _227
REMARK   97  A    between atoms: _227  and  _228
REMARK   98  A    between atoms: _227  and  _230
REMARK   99  A    between atoms: _230  and  _231
REMARK  100  A    between atoms: _233  and  _235
REMARK  101  A    between atoms: _235  and  _236
REMARK  102  A    between atoms: _235  and  _238
REMARK  103  A    between atoms: _238  and  _239
REMARK  104  A    between atoms: _243  and  _244
REMARK  105  A    between atoms: _249  and  _251
REMARK  106  A    between atoms: _251  and  _252
REMARK  107  A    between atoms: _251  and  _254
REMARK  108  A    between atoms: _254  and  _255
REMARK  109  A    between atoms: _257  and  _259
REMARK  110  A    between atoms: _259  and  _260
REMARK  111  A    between atoms: _262  and  _264
REMARK  112  A    between atoms: _264  and  _265
REMARK  113  A    between atoms: _264  and  _267
REMARK  114  A    between atoms: _267  and  _268
REMARK  115  A    between atoms: _271  and  _273
REMARK  116  A    between atoms: _273  and  _274
REMARK  117  A    between atoms: _273  and  _276
REMARK  118  A    between atoms: _276  and  _277
REMARK  119  A    between atoms: _280  and  _282
REMARK  120  A    between atoms: _282  and  _283
REMARK  121  A    between atoms: _286  and  _288
REMARK  122  A    between atoms: _288  and  _289
REMARK  123  A    between atoms: _288  and  _291
REMARK  124  A    between atoms: _291  and  _292
REMARK  125  A    between atoms: _297  and  _298
REMARK  126  A    between atoms: _300  and  _302
REMARK  127  A    between atoms: _302  and  _303
REMARK  128  A    between atoms: _302  and  _305
REMARK  129  A    between atoms: _305  and  _306
REMARK  130  A    between atoms: _311  and  _313
REMARK  131  A    between atoms: _313  and  _314
REMARK  132  A    between atoms: _313  and  _316
REMARK  133  A    between atoms: _316  and  _317
REMARK  134  A    between atoms: _317  and  _318
REMARK  135  A    between atoms: _318  and  _319
REMARK  136  A    between atoms: _319  and  _320
REMARK  137  A    between atoms: _324  and  _326
REMARK  138  A    between atoms: _326  and  _327
REMARK  139  A    between atoms: _326  and  _329
REMARK  140  A    between atoms: _329  and  _330
REMARK  141  A    between atoms: _332  and  _334
REMARK  142  A    between atoms: _334  and  _335
REMARK  143  A    between atoms: _334  and  _337
REMARK  144  A    between atoms: _337  and  _338
REMARK  145  A    between atoms: _341  and  _343
REMARK  146  A    between atoms: _343  and  _344
REMARK  147  A    between atoms: _343  and  _346
REMARK  148  A    between atoms: _346  and  _347
REMARK  149  A    between atoms: _350  and  _352
REMARK  150  A    between atoms: _352  and  _353
REMARK  151  A    between atoms: _352  and  _355
REMARK  152  A    between atoms: _355  and  _356
REMARK  153  A    between atoms: _356  and  _357
REMARK  154  A    between atoms: _359  and  _361
REMARK  155  A    between atoms: _361  and  _362
REMARK  156  A    between atoms: _361  and  _364
REMARK  157  A    between atoms: _364  and  _365
REMARK  158  A    between atoms: _367  and  _369
REMARK  159  A    between atoms: _369  and  _370
REMARK  160  A    between atoms: _369  and  _372
REMARK  161  A    between atoms: _375  and  _377
REMARK  162  A    between atoms: _377  and  _378
REMARK  163  A    between atoms: _377  and  _380
REMARK  164  A    between atoms: _380  and  _381
REMARK  165  A    between atoms: _384  and  _386
REMARK  166  A    between atoms: _386  and  _387
REMARK  167  A    between atoms: _386  and  _389
REMARK  168  A    between atoms: _389  and  _390
REMARK  169  A    between atoms: _395  and  _397
REMARK  170  A    between atoms: _397  and  _398
REMARK  171  A    between atoms: _397  and  _400
REMARK  172  A    between atoms: _400  and  _401
REMARK  173  A    between atoms: _404  and  _406
REMARK  174  A    between atoms: _406  and  _407
REMARK  175  A    between atoms: _406  and  _409
REMARK  176  A    between atoms: _409  and  _410
REMARK  177  A    between atoms: _416  and  _418
REMARK  178  A    between atoms: _418  and  _419
REMARK  179  A    between atoms: _418  and  _421
REMARK  180  A    between atoms: _421  and  _422
REMARK  181  A    between atoms: _422  and  _423
REMARK  182  A    between atoms: _423  and  _424
REMARK  183  A    between atoms: _433  and  _435
REMARK  184  A    between atoms: _435  and  _436
REMARK  185  A    between atoms: _435  and  _438
REMARK  186  A    between atoms: _441  and  _443
REMARK  187  A    between atoms: _443  and  _444
REMARK  188  A    between atoms: _443  and  _446
REMARK  189  A    between atoms: _446  and  _447
REMARK  190  A    between atoms: _449  and  _451
REMARK  191  A    between atoms: _451  and  _452
REMARK  192  A    between atoms: _451  and  _454
REMARK  193  A    between atoms: _454  and  _455
REMARK  194  A    between atoms: _461  and  _463
REMARK  195  A    between atoms: _463  and  _464
REMARK  196  A    between atoms: _463  and  _466
REMARK  197  A    between atoms: _466  and  _467
REMARK  198  A    between atoms: _469  and  _471
REMARK  199  A    between atoms: _471  and  _472
REMARK  200  A    between atoms: _475  and  _476
REMARK  201  A    between atoms: _481  and  _483
REMARK  202  A    between atoms: _483  and  _484
REMARK  203  A    between atoms: _483  and  _486
REMARK  204  A    between atoms: _486  and  _487
REMARK  205  A    between atoms: _493  and  _495
REMARK  206  A    between atoms: _495  and  _496
REMARK  207  A    between atoms: _495  and  _498
REMARK  208  A    between atoms: _498  and  _499
REMARK  209  A    between atoms: _505  and  _507
REMARK  210  A    between atoms: _507  and  _508
REMARK  211  A    between atoms: _507  and  _510
REMARK  212  A    between atoms: _510  and  _511
REMARK  213  A    between atoms: _511  and  _512
REMARK  214  A    between atoms: _512  and  _513
REMARK  215  A    between atoms: _522  and  _524
REMARK  216  A    between atoms: _524  and  _525
REMARK  217  A    between atoms: _527  and  _529
REMARK  218  A    between atoms: _529  and  _530
REMARK  219  A    between atoms: _529  and  _532
REMARK  220  A    between atoms: _532  and  _533
REMARK  221  A    between atoms: _536  and  _538
REMARK  222  A    between atoms: _538  and  _539
REMARK  223  A    between atoms: _541  and  _543
REMARK  224  A    between atoms: _543  and  _544
REMARK  225  A    between atoms: _543  and  _546
REMARK  226  A    between atoms: _546  and  _547
REMARK  227  A    between atoms: _547  and  _548
REMARK  228  A    between atoms: _550  and  _552
REMARK  229  A    between atoms: _552  and  _553
REMARK  230  A    between atoms: _556  and  _558
REMARK  231  A    between atoms: _558  and  _559
REMARK  232  A    between atoms: _558  and  _561
REMARK  233  A    between atoms: _561  and  _562
REMARK  234  A    between atoms: _564  and  _566
REMARK  235  A    between atoms: _566  and  _567
REMARK  236  A    between atoms: _566  and  _569
REMARK  237  A    between atoms: _569  and  _570
REMARK  238  A    between atoms: _573  and  _575
REMARK  239  A    between atoms: _575  and  _576
REMARK  240  A    between atoms: _575  and  _578
REMARK  241  A    between atoms: _578  and  _579
REMARK  242  A    between atoms: _584  and  _586
REMARK  243  A    between atoms: _586  and  _587
REMARK  244  A    between atoms: _586  and  _589
REMARK  245  A    between atoms: _589  and  _590
REMARK  246  A    between atoms: _595  and  _597
REMARK  247  A    between atoms: _597  and  _598
REMARK  248  A    between atoms: _597  and  _600
REMARK  249  A    between atoms: _603  and  _605
REMARK  250  A    between atoms: _605  and  _606
REMARK  251  A    between atoms: _605  and  _608
REMARK  252  A    between atoms: _608  and  _609
REMARK  253  A    between atoms: _614  and  _615
REMARK                            x       y       z     vdW  Elec       q    Type
REMARK                         _______ _______ _______ _____ _____    ______ ____
ROOT
ATOM      1  CA  ILE A   4      22.260   2.205  10.995  0.00  0.00    +0.149 C 
ENDROOT
BRANCH   1   3
ATOM      2  C   SER A   3      22.590   0.854   8.983  0.00  0.00    +0.243 C 
ATOM      3  N   ILE A   4      21.901   1.101  10.093  0.00  0.00    -0.297 N 
ATOM      4  H   ILE A   4      21.087   0.498  10.329  0.00  0.00    +0.150 HD
ATOM      5  O   SER A   3      23.452   1.616   8.547  0.00  0.00    -0.273 OA
BRANCH   2   6
ATOM      6  CA  SER A   3      22.260  -0.455   8.257  0.00  0.00    +0.178 C 
BRANCH   6   8
ATOM      7  C   ALA A   2      21.343   0.311   6.146  0.00  0.00    +0.241 C 
ATOM      8  N   SER A   3      22.311  -0.300   6.808  0.00  0.00    -0.295 N 
ATOM      9  H   SER A   3      23.126  -0.678   6.284  0.00  0.00    +0.150 HD
ATOM     10  O   ALA A   2      20.331   0.688   6.702  0.00  0.00    -0.273 OA
BRANCH   7  11
ATOM     11  CA  ALA A   2      21.539   0.499   4.621  0.00  0.00    +0.149 C 
ATOM     12  CB  ALA A   2      20.541   1.515   4.070  0.00  0.00    +0.031 C 
BRANCH  11  15
ATOM     13  C   MET A   1      20.599  -1.698   4.080  0.00  0.00    +0.238 C 
ATOM     14  O   MET A   1      19.831  -1.664   5.033  0.00  0.00    -0.274 OA
ATOM     15  N   ALA A   2      21.474  -0.738   3.844  0.00  0.00    -0.297 N 
ATOM     16  H   ALA A   2      22.152  -0.868   3.066  0.00  0.00    +0.150 HD
BRANCH  13  17
ATOM     17  CA  MET A   1      20.573  -2.887   3.105  0.00  0.00    +0.146 C 
BRANCH  17  18
ATOM     18  N   MET A   1      21.013  -4.079   3.804  0.00  0.00    -0.238 NA
ATOM     19  H   MET A   1      20.394  -4.490   4.532  0.00  0.00    +0.142 HD
ENDBRANCH  17  18
BRANCH  17  20
ATOM     20  CB  MET A   1      19.165  -3.096   2.557  0.00  0.00    +0.038 C 
BRANCH  20  21
ATOM     21  CG  MET A   1      18.954  -4.386   1.752  0.00  0.00    +0.060 C 
BRANCH  21  22
ATOM     22  SD  MET A   1      17.222  -4.504   1.228  0.00  0.00    -0.139 S 
ATOM     23  CE  MET A   1      17.210  -6.133   0.503  0.00  0.00    +0.069 C 
ENDBRANCH  21  22
ENDBRANCH  20  21
ENDBRANCH  17  20
ENDBRANCH  13  17
ENDBRANCH  11  15
ENDBRANCH   7  11
ENDBRANCH   6   8
BRANCH   6  24
ATOM     24  CB  SER A   3      23.263  -1.515   8.693  0.00  0.00    +0.166 C 
BRANCH  24  25
ATOM     25  OG  SER A   3      24.451  -1.450   7.919  0.00  0.00    -0.380 OA
ATOM     26  H   SER A   3      24.231  -1.597   6.965  0.00  0.00    +0.211 HD
ENDBRANCH  24  25
ENDBRANCH   6  24
ENDBRANCH   2   6
ENDBRANCH   1   3
BRANCH   1  27
ATOM     27  C   ILE A   4      23.361   1.690  11.887  0.00  0.00    +0.241 C 
ATOM     28  O   ILE A   4      23.209   0.666  12.532  0.00  0.00    -0.273 OA
ATOM     29  N   ASN A   5      24.500   2.352  11.864  0.00  0.00    -0.297 N 
ATOM     30  H   ASN A   5      24.639   3.115  11.171  0.00  0.00    +0.150 HD
BRANCH  29  31
ATOM     31  CA  ASN A   5      25.562   2.027  12.796  0.00  0.00    +0.158 C 
BRANCH  31  32
ATOM     32  C   ASN A   5      26.010   3.280  13.499  0.00  0.00    +0.241 C 
ATOM     33  N   ASN A   6      25.761   3.343  14.795  0.00  0.00    -0.298 N 
ATOM     34  H   ASN A   6      25.171   2.611  15.240  0.00  0.00    +0.150 HD
ATOM     35  O   ASN A   5      26.542   4.187  12.869  0.00  0.00    -0.273 OA
BRANCH  33  36
ATOM     36  CA  ASN A   6      26.304   4.428  15.613  0.00  0.00    +0.146 C 
BRANCH  36  37
ATOM     37  C   ASN A   6      26.835   3.836  16.917  0.00  0.00    +0.227 C 
ATOM     38  O   ASN A   6      26.918   2.613  17.050  0.00  0.00    -0.286 OA
ENDBRANCH  36  37
BRANCH  36  39
ATOM     39  CB  ASN A   6      25.267   5.543  15.812  0.00  0.00    +0.112 C 
BRANCH  39  40
ATOM     40  CG  ASN A   6      23.949   5.020  16.290  0.00  0.00    +0.222 C 
ATOM     41  OD1 ASN A   6      23.912   4.075  17.065  0.00  0.00    -0.275 OA
ATOM     42  ND2 ASN A   6      22.856   5.615  15.824  0.00  0.00    -0.329 N 
ATOM     43 HD21 ASN A   6      21.916   5.280  16.117  0.00  0.00    +0.145 HD
ATOM     44 HD22 ASN A   6      22.940   6.416  15.166  0.00  0.00    +0.145 HD
ENDBRANCH  39  40
ENDBRANCH  36  39
ENDBRANCH  33  36
ENDBRANCH  31  32
BRANCH  31  45
ATOM     45  CB  ASN A   5      26.745   1.368  12.099  0.00  0.00    +0.114 C 
BRANCH  45  46
ATOM     46  CG  ASN A   5      26.579  -0.124  11.978  0.00  0.00    +0.222 C 
ATOM     47  OD1 ASN A   5      27.104  -0.874  12.804  0.00  0.00    -0.275 OA
ATOM     48  ND2 ASN A   5      25.828  -0.574  10.958  0.00  0.00    -0.329 N 
ATOM     49 HD21 ASN A   5      25.669  -1.595  10.840  0.00  0.00    +0.145 HD
ATOM     50 HD22 ASN A   5      25.406   0.099  10.287  0.00  0.00    +0.145 HD
ENDBRANCH  45  46
ENDBRANCH  31  45
ENDBRANCH  29  31
ENDBRANCH   1  27
BRANCH   1  51
ATOM     51  CB  ILE A   4      21.094   2.679  11.862  0.00  0.00    +0.027 C 
ATOM     52  CG2 ILE A   4      21.513   3.881  12.721  0.00  0.00    +0.002 C 
BRANCH  51  53
ATOM     53  CG1 ILE A   4      19.909   3.100  10.982  0.00  0.00    +0.002 C 
ATOM     54  CD1 ILE A   4      18.670   3.473  11.792  0.00  0.00    +0.000 C 
ENDBRANCH  51  53
ENDBRANCH   1  51
TORSDOF 23
REMARK  Name = ../refined-set-2016/4dy6/4dy6_pocket.pdb
REMARK  253 active torsions:
REMARK  status: ('A' for Active; 'I' for Inactive)
REMARK    1  A    between atoms: _1  and  _3
REMARK    2  A    between atoms: _3  and  _4
REMARK    3  A    between atoms: _3  and  _6
REMARK    4  A    between atoms: _6  and  _7
REMARK    5  A    between atoms: _7  and  _8
REMARK    6  A    between atoms: _8  and  _9
REMARK    7  A    between atoms: _9  and  _10
REMARK    8  A    between atoms: _14  and  _16
REMARK    9  A    between atoms: _16  and  _17
REMARK   10  A    between atoms: _19  and  _21
REMARK   11  A    between atoms: _21  and  _22
REMARK   12  A    between atoms: _24  and  _26
REMARK   13  A    between atoms: _26  and  _27
REMARK   14  A    between atoms: _26  and  _29
REMARK   15  A    between atoms: _29  and  _30
REMARK   16  A    between atoms: _33  and  _35
REMARK   17  A    between atoms: _35  and  _36
REMARK   18  A    between atoms: _38  and  _40
REMARK   19  A    between atoms: _40  and  _41
REMARK   20  A    between atoms: _40  and  _43
REMARK   21  A    between atoms: _43  and  _44
REMARK   22  A    between atoms: _47  and  _49
REMARK   23  A    between atoms: _49  and  _50
REMARK   24  A    between atoms: _49  and  _52
REMARK   25  A    between atoms: _52  and  _53
REMARK   26  A    between atoms: _59  and  _61
REMARK   27  A    between atoms: _61  and  _62
REMARK   28  A    between atoms: _61  and  _64
REMARK   29  A    between atoms: _64  and  _65
REMARK   30  A    between atoms: _68  and  _70
REMARK   31  A    between atoms: _70  and  _71
REMARK   32  A    between atoms: _70  and  _73
REMARK   33  A    between atoms: _73  and  _74
REMARK   34  A    between atoms: _76  and  _78
REMARK   35  A    between atoms: _78  and  _79
REMARK   36  A    between atoms: _78  and  _81
REMARK   37  A    between atoms: _81  and  _82
REMARK   38  A    between atoms: _87  and  _89
REMARK   39  A    between atoms: _89  and  _90
REMARK   40  A    between atoms: _89  and  _92
REMARK   41  A    between atoms: _92  and  _93
REMARK   42  A    between atoms: _96  and  _98
REMARK   43  A    between atoms: _98  and  _99
REMARK   44  A    between atoms: _101  and  _103
REMARK   45  A    between atoms: _103  and  _104
REMARK   46  A    between atoms: _103  and  _106
REMARK   47  A    between atoms: _106  and  _107
REMARK   48  A    between atoms: _112  and  _114
REMARK   49  A    between atoms: _114  and  _115
REMARK   50  A    between atoms: _114  and  _117
REMARK   51  A    between atoms: _117  and  _118
REMARK   52  A    between atoms: _121  and  _123
REMARK   53  A    between atoms: _123  and  _124
REMARK   54  A    between atoms: _126  and  _128
REMARK   55  A    between atoms: _128  and  _129
REMARK   56  A    between atoms: _128  and  _131
REMARK   57  A    between atoms: _131  and  _132
REMARK   58  A    between atoms: _138  and  _140
REMARK   59  A    between atoms: _140  and  _141
REMARK   60  A    between atoms: _140  and  _143
REMARK   61  A    between atoms: _143  and  _144
REMARK   62  A    between atoms: _149  and  _150
REMARK   63  A    between atoms: _152  and  _154
REMARK   64  A    between atoms: _154  and  _155
REMARK   65  A    between atoms: _158  and  _160
REMARK   66  A    between atoms: _160  and  _161
REMARK   67  A    between atoms: _160  and  _163
REMARK   68  A    between atoms: _163  and  _164
REMARK   69  A    between atoms: _167  and  _169
REMARK   70  A    between atoms: _169  and  _170
REMARK   71  A    between atoms: _169  and  _172
REMARK   72  A    between atoms: _172  and  _173
REMARK   73  A    between atoms: _178  and  _180
REMARK   74  A    between atoms: _180  and  _181
REMARK   75  A    between atoms: _180  and  _183
REMARK   76  A    between atoms: _183  and  _184
REMARK   77  A    between atoms: _184  and  _185
REMARK   78  A    between atoms: _188  and  _190
REMARK   79  A    between atoms: _190  and  _191
REMARK   80  A    between atoms: _190  and  _193
REMARK   81  A    between atoms: _193  and  _194
REMARK   82  A    between atoms: _196  and  _198
REMARK   83  A    between atoms: _198  and  _199
REMARK   84  A    between atoms: _198  and  _201
REMARK   85  A    between atoms: _201  and  _202
REMARK   86  A    between atoms: _205  and  _207
REMARK   87  A    between atoms: _207  and  _208
REMARK   88  A    between atoms: _207  and  _210
REMARK   89  A    between atoms: _210  and  _211
REMARK   90  A    between atoms: _211  and  _212
REMARK   91  A    between atoms: _212  and  _213
REMARK   92  A    between atoms: _213  and  _214
REMARK   93  A    between atoms: _218  and  _220
REMARK   94  A    between atoms: _220  and  _221
REMARK   95  A    between atoms: _220  and  _223
REMARK   96  A    between atoms: _225  and  _227
REMARK   97  A    between atoms: _227  and  _228
REMARK   98  A    between atoms: _227  and  _230
REMARK   99  A    between atoms: _230  and  _231
REMARK  100  A    between atoms: _233  and  _235
REMARK  101  A    between atoms: _235  and  _236
REMARK  102  A    between atoms: _235  and  _238
REMARK  103  A    between atoms: _238  and  _239
REMARK  104  A    between atoms: _243  and  _244
REMARK  105  A    between atoms: _249  and  _251
REMARK  106  A    between atoms: _251  and  _252
REMARK  107  A    between atoms: _251  and  _254
REMARK  108  A    between atoms: _254  and  _255
REMARK  109  A    between atoms: _257  and  _259
REMARK  110  A    between atoms: _259  and  _260
REMARK  111  A    between atoms: _262  and  _264
REMARK  112  A    between atoms: _264  and  _265
REMARK  113  A    between atoms: _264  and  _267
REMARK  114  A    between atoms: _267  and  _268
REMARK  115  A    between atoms: _271  and  _273
REMARK  116  A    between atoms: _273  and  _274
REMARK  117  A    between atoms: _273  and  _276
REMARK  118  A    between atoms: _276  and  _277
REMARK  119  A    between atoms: _280  and  _282
REMARK  120  A    between atoms: _282  and  _283
REMARK  121  A    between atoms: _286  and  _288
REMARK  122  A    between atoms: _288  and  _289
REMARK  123  A    between atoms: _288  and  _291
REMARK  124  A    between atoms: _291  and  _292
REMARK  125  A    between atoms: _297  and  _298
REMARK  126  A    between atoms: _300  and  _302
REMARK  127  A    between atoms: _302  and  _303
REMARK  128  A    between atoms: _302  and  _305
REMARK  129  A    between atoms: _305  and  _306
REMARK  130  A    between atoms: _311  and  _313
REMARK  131  A    between atoms: _313  and  _314
REMARK  132  A    between atoms: _313  and  _316
REMARK  133  A    between atoms: _316  and  _317
REMARK  134  A    between atoms: _317  and  _318
REMARK  135  A    between atoms: _318  and  _319
REMARK  136  A    between atoms: _319  and  _320
REMARK  137  A    between atoms: _324  and  _326
REMARK  138  A    between atoms: _326  and  _327
REMARK  139  A    between atoms: _326  and  _329
REMARK  140  A    between atoms: _329  and  _330
REMARK  141  A    between atoms: _332  and  _334
REMARK  142  A    between atoms: _334  and  _335
REMARK  143  A    between atoms: _334  and  _337
REMARK  144  A    between atoms: _337  and  _338
REMARK  145  A    between atoms: _341  and  _343
REMARK  146  A    between atoms: _343  and  _344
REMARK  147  A    between atoms: _343  and  _346
REMARK  148  A    between atoms: _346  and  _347
REMARK  149  A    between atoms: _350  and  _352
REMARK  150  A    between atoms: _352  and  _353
REMARK  151  A    between atoms: _352  and  _355
REMARK  152  A    between atoms: _355  and  _356
REMARK  153  A    between atoms: _356  and  _357
REMARK  154  A    between atoms: _359  and  _361
REMARK  155  A    between atoms: _361  and  _362
REMARK  156  A    between atoms: _361  and  _364
REMARK  157  A    between atoms: _364  and  _365
REMARK  158  A    between atoms: _367  and  _369
REMARK  159  A    between atoms: _369  and  _370
REMARK  160  A    between atoms: _369  and  _372
REMARK  161  A    between atoms: _375  and  _377
REMARK  162  A    between atoms: _377  and  _378
REMARK  163  A    between atoms: _377  and  _380
REMARK  164  A    between atoms: _380  and  _381
REMARK  165  A    between atoms: _384  and  _386
REMARK  166  A    between atoms: _386  and  _387
REMARK  167  A    between atoms: _386  and  _389
REMARK  168  A    between atoms: _389  and  _390
REMARK  169  A    between atoms: _395  and  _397
REMARK  170  A    between atoms: _397  and  _398
REMARK  171  A    between atoms: _397  and  _400
REMARK  172  A    between atoms: _400  and  _401
REMARK  173  A    between atoms: _404  and  _406
REMARK  174  A    between atoms: _406  and  _407
REMARK  175  A    between atoms: _406  and  _409
REMARK  176  A    between atoms: _409  and  _410
REMARK  177  A    between atoms: _416  and  _418
REMARK  178  A    between atoms: _418  and  _419
REMARK  179  A    between atoms: _418  and  _421
REMARK  180  A    between atoms: _421  and  _422
REMARK  181  A    between atoms: _422  and  _423
REMARK  182  A    between atoms: _423  and  _424
REMARK  183  A    between atoms: _433  and  _435
REMARK  184  A    between atoms: _435  and  _436
REMARK  185  A    between atoms: _435  and  _438
REMARK  186  A    between atoms: _441  and  _443
REMARK  187  A    between atoms: _443  and  _444
REMARK  188  A    between atoms: _443  and  _446
REMARK  189  A    between atoms: _446  and  _447
REMARK  190  A    between atoms: _449  and  _451
REMARK  191  A    between atoms: _451  and  _452
REMARK  192  A    between atoms: _451  and  _454
REMARK  193  A    between atoms: _454  and  _455
REMARK  194  A    between atoms: _461  and  _463
REMARK  195  A    between atoms: _463  and  _464
REMARK  196  A    between atoms: _463  and  _466
REMARK  197  A    between atoms: _466  and  _467
REMARK  198  A    between atoms: _469  and  _471
REMARK  199  A    between atoms: _471  and  _472
REMARK  200  A    between atoms: _475  and  _476
REMARK  201  A    between atoms: _481  and  _483
REMARK  202  A    between atoms: _483  and  _484
REMARK  203  A    between atoms: _483  and  _486
REMARK  204  A    between atoms: _486  and  _487
REMARK  205  A    between atoms: _493  and  _495
REMARK  206  A    between atoms: _495  and  _496
REMARK  207  A    between atoms: _495  and  _498
REMARK  208  A    between atoms: _498  and  _499
REMARK  209  A    between atoms: _505  and  _507
REMARK  210  A    between atoms: _507  and  _508
REMARK  211  A    between atoms: _507  and  _510
REMARK  212  A    between atoms: _510  and  _511
REMARK  213  A    between atoms: _511  and  _512
REMARK  214  A    between atoms: _512  and  _513
REMARK  215  A    between atoms: _522  and  _524
REMARK  216  A    between atoms: _524  and  _525
REMARK  217  A    between atoms: _527  and  _529
REMARK  218  A    between atoms: _529  and  _530
REMARK  219  A    between atoms: _529  and  _532
REMARK  220  A    between atoms: _532  and  _533
REMARK  221  A    between atoms: _536  and  _538
REMARK  222  A    between atoms: _538  and  _539
REMARK  223  A    between atoms: _541  and  _543
REMARK  224  A    between atoms: _543  and  _544
REMARK  225  A    between atoms: _543  and  _546
REMARK  226  A    between atoms: _546  and  _547
REMARK  227  A    between atoms: _547  and  _548
REMARK  228  A    between atoms: _550  and  _552
REMARK  229  A    between atoms: _552  and  _553
REMARK  230  A    between atoms: _556  and  _558
REMARK  231  A    between atoms: _558  and  _559
REMARK  232  A    between atoms: _558  and  _561
REMARK  233  A    between atoms: _561  and  _562
REMARK  234  A    between atoms: _564  and  _566
REMARK  235  A    between atoms: _566  and  _567
REMARK  236  A    between atoms: _566  and  _569
REMARK  237  A    between atoms: _569  and  _570
REMARK  238  A    between atoms: _573  and  _575
REMARK  239  A    between atoms: _575  and  _576
REMARK  240  A    between atoms: _575  and  _578
REMARK  241  A    between atoms: _578  and  _579
REMARK  242  A    between atoms: _584  and  _586
REMARK  243  A    between atoms: _586  and  _587
REMARK  244  A    between atoms: _586  and  _589
REMARK  245  A    between atoms: _589  and  _590
REMARK  246  A    between atoms: _595  and  _597
REMARK  247  A    between atoms: _597  and  _598
REMARK  248  A    between atoms: _597  and  _600
REMARK  249  A    between atoms: _603  and  _605
REMARK  250  A    between atoms: _605  and  _606
REMARK  251  A    between atoms: _605  and  _608
REMARK  252  A    between atoms: _608  and  _609
REMARK  253  A    between atoms: _614  and  _615
REMARK                            x       y       z     vdW  Elec       q    Type
REMARK                         _______ _______ _______ _____ _____    ______ ____
ROOT
ATOM      1  CA  TYR A   2      23.475   0.480  17.163  0.00  0.00    +0.141 C 
ENDROOT
BRANCH   1   4
ATOM      2  C   VAL A   1      24.252   1.228  19.369  0.00  0.00    +0.238 C 
ATOM      3  O   VAL A   1      24.158   0.080  19.843  0.00  0.00    -0.274 OA
ATOM      4  N   TYR A   2      23.963   1.511  18.090  0.00  0.00    -0.298 N 
ATOM      5  H   TYR A   2      24.087   2.484  17.746  0.00  0.00    +0.150 HD
BRANCH   2   6
ATOM      6  CA  VAL A   1      24.686   2.399  20.282  0.00  0.00    +0.145 C 
BRANCH   6   7
ATOM      7  CB  VAL A   1      23.426   3.176  20.747  0.00  0.00    +0.025 C 
ATOM      8  CG2 VAL A   1      23.750   4.651  20.968  0.00  0.00    +0.002 C 
ATOM      9  CG1 VAL A   1      22.310   3.055  19.740  0.00  0.00    +0.002 C 
ENDBRANCH   6   7
BRANCH   6  10
ATOM     10  N   VAL A   1      25.662   3.295  19.660  0.00  0.00    -0.238 NA
ATOM     11  H   VAL A   1      25.312   4.073  19.065  0.00  0.00    +0.142 HD
ENDBRANCH   6  10
ENDBRANCH   2   6
ENDBRANCH   1   4
BRANCH   1  12
ATOM     12  C   TYR A   2      24.608  -0.100  16.348  0.00  0.00    +0.227 C 
ATOM     13  O   TYR A   2      25.409   0.638  15.779  0.00  0.00    -0.286 OA
ENDBRANCH   1  12
BRANCH   1  14
ATOM     14  CB  TYR A   2      22.385   1.000  16.231  0.00  0.00    +0.054 C 
BRANCH  14  15
ATOM     15  CG  TYR A   2      21.254   1.688  16.946  0.00  0.00    -0.020 A 
ATOM     16  CD2 TYR A   2      20.893   1.312  18.241  0.00  0.00    -0.001 A 
ATOM     17  CE2 TYR A   2      19.860   1.936  18.910  0.00  0.00    +0.036 A 
ATOM     18  CZ  TYR A   2      19.169   2.961  18.295  0.00  0.00    +0.134 A 
ATOM     19  CE1 TYR A   2      19.504   3.361  16.999  0.00  0.00    +0.036 A 
ATOM     20  CD1 TYR A   2      20.541   2.723  16.335  0.00  0.00    -0.001 A 
BRANCH  18  21
ATOM     21  OH  TYR A   2      18.146   3.573  18.991  0.00  0.00    -0.506 OA
ATOM     22  HH  TYR A   2      18.060   3.155  19.884  0.00  0.00    +0.292 HD
ENDBRANCH  18  21
ENDBRANCH  14  15
ENDBRANCH   1  14
TORSDOF 8
REMARK  Name = ../refined-set-2016/4dy6/4dy6_pocket.pdb
REMARK  253 active torsions:
REMARK  status: ('A' for Active; 'I' for Inactive)
REMARK    1  A    between atoms: _1  and  _3
REMARK    2  A    between atoms: _3  and  _4
REMARK    3  A    between atoms: _3  and  _6
REMARK    4  A    between atoms: _6  and  _7
REMARK    5  A    between atoms: _7  and  _8
REMARK    6  A    between atoms: _8  and  _9
REMARK    7  A    between atoms: _9  and  _10
REMARK    8  A    between atoms: _14  and  _16
REMARK    9  A    between atoms: _16  and  _17
REMARK   10  A    between atoms: _19  and  _21
REMARK   11  A    between atoms: _21  and  _22
REMARK   12  A    between atoms: _24  and  _26
REMARK   13  A    between atoms: _26  and  _27
REMARK   14  A    between atoms: _26  and  _29
REMARK   15  A    between atoms: _29  and  _30
REMARK   16  A    between atoms: _33  and  _35
REMARK   17  A    between atoms: _35  and  _36
REMARK   18  A    between atoms: _38  and  _40
REMARK   19  A    between atoms: _40  and  _41
REMARK   20  A    between atoms: _40  and  _43
REMARK   21  A    between atoms: _43  and  _44
REMARK   22  A    between atoms: _47  and  _49
REMARK   23  A    between atoms: _49  and  _50
REMARK   24  A    between atoms: _49  and  _52
REMARK   25  A    between atoms: _52  and  _53
REMARK   26  A    between atoms: _59  and  _61
REMARK   27  A    between atoms: _61  and  _62
REMARK   28  A    between atoms: _61  and  _64
REMARK   29  A    between atoms: _64  and  _65
REMARK   30  A    between atoms: _68  and  _70
REMARK   31  A    between atoms: _70  and  _71
REMARK   32  A    between atoms: _70  and  _73
REMARK   33  A    between atoms: _73  and  _74
REMARK   34  A    between atoms: _76  and  _78
REMARK   35  A    between atoms: _78  and  _79
REMARK   36  A    between atoms: _78  and  _81
REMARK   37  A    between atoms: _81  and  _82
REMARK   38  A    between atoms: _87  and  _89
REMARK   39  A    between atoms: _89  and  _90
REMARK   40  A    between atoms: _89  and  _92
REMARK   41  A    between atoms: _92  and  _93
REMARK   42  A    between atoms: _96  and  _98
REMARK   43  A    between atoms: _98  and  _99
REMARK   44  A    between atoms: _101  and  _103
REMARK   45  A    between atoms: _103  and  _104
REMARK   46  A    between atoms: _103  and  _106
REMARK   47  A    between atoms: _106  and  _107
REMARK   48  A    between atoms: _112  and  _114
REMARK   49  A    between atoms: _114  and  _115
REMARK   50  A    between atoms: _114  and  _117
REMARK   51  A    between atoms: _117  and  _118
REMARK   52  A    between atoms: _121  and  _123
REMARK   53  A    between atoms: _123  and  _124
REMARK   54  A    between atoms: _126  and  _128
REMARK   55  A    between atoms: _128  and  _129
REMARK   56  A    between atoms: _128  and  _131
REMARK   57  A    between atoms: _131  and  _132
REMARK   58  A    between atoms: _138  and  _140
REMARK   59  A    between atoms: _140  and  _141
REMARK   60  A    between atoms: _140  and  _143
REMARK   61  A    between atoms: _143  and  _144
REMARK   62  A    between atoms: _149  and  _150
REMARK   63  A    between atoms: _152  and  _154
REMARK   64  A    between atoms: _154  and  _155
REMARK   65  A    between atoms: _158  and  _160
REMARK   66  A    between atoms: _160  and  _161
REMARK   67  A    between atoms: _160  and  _163
REMARK   68  A    between atoms: _163  and  _164
REMARK   69  A    between atoms: _167  and  _169
REMARK   70  A    between atoms: _169  and  _170
REMARK   71  A    between atoms: _169  and  _172
REMARK   72  A    between atoms: _172  and  _173
REMARK   73  A    between atoms: _178  and  _180
REMARK   74  A    between atoms: _180  and  _181
REMARK   75  A    between atoms: _180  and  _183
REMARK   76  A    between atoms: _183  and  _184
REMARK   77  A    between atoms: _184  and  _185
REMARK   78  A    between atoms: _188  and  _190
REMARK   79  A    between atoms: _190  and  _191
REMARK   80  A    between atoms: _190  and  _193
REMARK   81  A    between atoms: _193  and  _194
REMARK   82  A    between atoms: _196  and  _198
REMARK   83  A    between atoms: _198  and  _199
REMARK   84  A    between atoms: _198  and  _201
REMARK   85  A    between atoms: _201  and  _202
REMARK   86  A    between atoms: _205  and  _207
REMARK   87  A    between atoms: _207  and  _208
REMARK   88  A    between atoms: _207  and  _210
REMARK   89  A    between atoms: _210  and  _211
REMARK   90  A    between atoms: _211  and  _212
REMARK   91  A    between atoms: _212  and  _213
REMARK   92  A    between atoms: _213  and  _214
REMARK   93  A    between atoms: _218  and  _220
REMARK   94  A    between atoms: _220  and  _221
REMARK   95  A    between atoms: _220  and  _223
REMARK   96  A    between atoms: _225  and  _227
REMARK   97  A    between atoms: _227  and  _228
REMARK   98  A    between atoms: _227  and  _230
REMARK   99  A    between atoms: _230  and  _231
REMARK  100  A    between atoms: _233  and  _235
REMARK  101  A    between atoms: _235  and  _236
REMARK  102  A    between atoms: _235  and  _238
REMARK  103  A    between atoms: _238  and  _239
REMARK  104  A    between atoms: _243  and  _244
REMARK  105  A    between atoms: _249  and  _251
REMARK  106  A    between atoms: _251  and  _252
REMARK  107  A    between atoms: _251  and  _254
REMARK  108  A    between atoms: _254  and  _255
REMARK  109  A    between atoms: _257  and  _259
REMARK  110  A    between atoms: _259  and  _260
REMARK  111  A    between atoms: _262  and  _264
REMARK  112  A    between atoms: _264  and  _265
REMARK  113  A    between atoms: _264  and  _267
REMARK  114  A    between atoms: _267  and  _268
REMARK  115  A    between atoms: _271  and  _273
REMARK  116  A    between atoms: _273  and  _274
REMARK  117  A    between atoms: _273  and  _276
REMARK  118  A    between atoms: _276  and  _277
REMARK  119  A    between atoms: _280  and  _282
REMARK  120  A    between atoms: _282  and  _283
REMARK  121  A    between atoms: _286  and  _288
REMARK  122  A    between atoms: _288  and  _289
REMARK  123  A    between atoms: _288  and  _291
REMARK  124  A    between atoms: _291  and  _292
REMARK  125  A    between atoms: _297  and  _298
REMARK  126  A    between atoms: _300  and  _302
REMARK  127  A    between atoms: _302  and  _303
REMARK  128  A    between atoms: _302  and  _305
REMARK  129  A    between atoms: _305  and  _306
REMARK  130  A    between atoms: _311  and  _313
REMARK  131  A    between atoms: _313  and  _314
REMARK  132  A    between atoms: _313  and  _316
REMARK  133  A    between atoms: _316  and  _317
REMARK  134  A    between atoms: _317  and  _318
REMARK  135  A    between atoms: _318  and  _319
REMARK  136  A    between atoms: _319  and  _320
REMARK  137  A    between atoms: _324  and  _326
REMARK  138  A    between atoms: _326  and  _327
REMARK  139  A    between atoms: _326  and  _329
REMARK  140  A    between atoms: _329  and  _330
REMARK  141  A    between atoms: _332  and  _334
REMARK  142  A    between atoms: _334  and  _335
REMARK  143  A    between atoms: _334  and  _337
REMARK  144  A    between atoms: _337  and  _338
REMARK  145  A    between atoms: _341  and  _343
REMARK  146  A    between atoms: _343  and  _344
REMARK  147  A    between atoms: _343  and  _346
REMARK  148  A    between atoms: _346  and  _347
REMARK  149  A    between atoms: _350  and  _352
REMARK  150  A    between atoms: _352  and  _353
REMARK  151  A    between atoms: _352  and  _355
REMARK  152  A    between atoms: _355  and  _356
REMARK  153  A    between atoms: _356  and  _357
REMARK  154  A    between atoms: _359  and  _361
REMARK  155  A    between atoms: _361  and  _362
REMARK  156  A    between atoms: _361  and  _364
REMARK  157  A    between atoms: _364  and  _365
REMARK  158  A    between atoms: _367  and  _369
REMARK  159  A    between atoms: _369  and  _370
REMARK  160  A    between atoms: _369  and  _372
REMARK  161  A    between atoms: _375  and  _377
REMARK  162  A    between atoms: _377  and  _378
REMARK  163  A    between atoms: _377  and  _380
REMARK  164  A    between atoms: _380  and  _381
REMARK  165  A    between atoms: _384  and  _386
REMARK  166  A    between atoms: _386  and  _387
REMARK  167  A    between atoms: _386  and  _389
REMARK  168  A    between atoms: _389  and  _390
REMARK  169  A    between atoms: _395  and  _397
REMARK  170  A    between atoms: _397  and  _398
REMARK  171  A    between atoms: _397  and  _400
REMARK  172  A    between atoms: _400  and  _401
REMARK  173  A    between atoms: _404  and  _406
REMARK  174  A    between atoms: _406  and  _407
REMARK  175  A    between atoms: _406  and  _409
REMARK  176  A    between atoms: _409  and  _410
REMARK  177  A    between atoms: _416  and  _418
REMARK  178  A    between atoms: _418  and  _419
REMARK  179  A    between atoms: _418  and  _421
REMARK  180  A    between atoms: _421  and  _422
REMARK  181  A    between atoms: _422  and  _423
REMARK  182  A    between atoms: _423  and  _424
REMARK  183  A    between atoms: _433  and  _435
REMARK  184  A    between atoms: _435  and  _436
REMARK  185  A    between atoms: _435  and  _438
REMARK  186  A    between atoms: _441  and  _443
REMARK  187  A    between atoms: _443  and  _444
REMARK  188  A    between atoms: _443  and  _446
REMARK  189  A    between atoms: _446  and  _447
REMARK  190  A    between atoms: _449  and  _451
REMARK  191  A    between atoms: _451  and  _452
REMARK  192  A    between atoms: _451  and  _454
REMARK  193  A    between atoms: _454  and  _455
REMARK  194  A    between atoms: _461  and  _463
REMARK  195  A    between atoms: _463  and  _464
REMARK  196  A    between atoms: _463  and  _466
REMARK  197  A    between atoms: _466  and  _467
REMARK  198  A    between atoms: _469  and  _471
REMARK  199  A    between atoms: _471  and  _472
REMARK  200  A    between atoms: _475  and  _476
REMARK  201  A    between atoms: _481  and  _483
REMARK  202  A    between atoms: _483  and  _484
REMARK  203  A    between atoms: _483  and  _486
REMARK  204  A    between atoms: _486  and  _487
REMARK  205  A    between atoms: _493  and  _495
REMARK  206  A    between atoms: _495  and  _496
REMARK  207  A    between atoms: _495  and  _498
REMARK  208  A    between atoms: _498  and  _499
REMARK  209  A    between atoms: _505  and  _507
REMARK  210  A    between atoms: _507  and  _508
REMARK  211  A    between atoms: _507  and  _510
REMARK  212  A    between atoms: _510  and  _511
REMARK  213  A    between atoms: _511  and  _512
REMARK  214  A    between atoms: _512  and  _513
REMARK  215  A    between atoms: _522  and  _524
REMARK  216  A    between atoms: _524  and  _525
REMARK  217  A    between atoms: _527  and  _529
REMARK  218  A    between atoms: _529  and  _530
REMARK  219  A    between atoms: _529  and  _532
REMARK  220  A    between atoms: _532  and  _533
REMARK  221  A    between atoms: _536  and  _538
REMARK  222  A    between atoms: _538  and  _539
REMARK  223  A    between atoms: _541  and  _543
REMARK  224  A    between atoms: _543  and  _544
REMARK  225  A    between atoms: _543  and  _546
REMARK  226  A    between atoms: _546  and  _547
REMARK  227  A    between atoms: _547  and  _548
REMARK  228  A    between atoms: _550  and  _552
REMARK  229  A    between atoms: _552  and  _553
REMARK  230  A    between atoms: _556  and  _558
REMARK  231  A    between atoms: _558  and  _559
REMARK  232  A    between atoms: _558  and  _561
REMARK  233  A    between atoms: _561  and  _562
REMARK  234  A    between atoms: _564  and  _566
REMARK  235  A    between atoms: _566  and  _567
REMARK  236  A    between atoms: _566  and  _569
REMARK  237  A    between atoms: _569  and  _570
REMARK  238  A    between atoms: _573  and  _575
REMARK  239  A    between atoms: _575  and  _576
REMARK  240  A    between atoms: _575  and  _578
REMARK  241  A    between atoms: _578  and  _579
REMARK  242  A    between atoms: _584  and  _586
REMARK  243  A    between atoms: _586  and  _587
REMARK  244  A    between atoms: _586  and  _589
REMARK  245  A    between atoms: _589  and  _590
REMARK  246  A    between atoms: _595  and  _597
REMARK  247  A    between atoms: _597  and  _598
REMARK  248  A    between atoms: _597  and  _600
REMARK  249  A    between atoms: _603  and  _605
REMARK  250  A    between atoms: _605  and  _606
REMARK  251  A    between atoms: _605  and  _608
REMARK  252  A    between atoms: _608  and  _609
REMARK  253  A    between atoms: _614  and  _615
REMARK                            x       y       z     vdW  Elec       q    Type
REMARK                         _______ _______ _______ _____ _____    ______ ____
ROOT
ATOM      1  O   HOH     1      23.569   7.383  11.051  0.00  0.00    +0.000 OA
ENDROOT
TORSDOF 0
REMARK  Name = ../refined-set-2016/4dy6/4dy6_pocket.pdb
REMARK  253 active torsions:
REMARK  status: ('A' for Active; 'I' for Inactive)
REMARK    1  A    between atoms: _1  and  _3
REMARK    2  A    between atoms: _3  and  _4
REMARK    3  A    between atoms: _3  and  _6
REMARK    4  A    between atoms: _6  and  _7
REMARK    5  A    between atoms: _7  and  _8
REMARK    6  A    between atoms: _8  and  _9
REMARK    7  A    between atoms: _9  and  _10
REMARK    8  A    between atoms: _14  and  _16
REMARK    9  A    between atoms: _16  and  _17
REMARK   10  A    between atoms: _19  and  _21
REMARK   11  A    between atoms: _21  and  _22
REMARK   12  A    between atoms: _24  and  _26
REMARK   13  A    between atoms: _26  and  _27
REMARK   14  A    between atoms: _26  and  _29
REMARK   15  A    between atoms: _29  and  _30
REMARK   16  A    between atoms: _33  and  _35
REMARK   17  A    between atoms: _35  and  _36
REMARK   18  A    between atoms: _38  and  _40
REMARK   19  A    between atoms: _40  and  _41
REMARK   20  A    between atoms: _40  and  _43
REMARK   21  A    between atoms: _43  and  _44
REMARK   22  A    between atoms: _47  and  _49
REMARK   23  A    between atoms: _49  and  _50
REMARK   24  A    between atoms: _49  and  _52
REMARK   25  A    between atoms: _52  and  _53
REMARK   26  A    between atoms: _59  and  _61
REMARK   27  A    between atoms: _61  and  _62
REMARK   28  A    between atoms: _61  and  _64
REMARK   29  A    between atoms: _64  and  _65
REMARK   30  A    between atoms: _68  and  _70
REMARK   31  A    between atoms: _70  and  _71
REMARK   32  A    between atoms: _70  and  _73
REMARK   33  A    between atoms: _73  and  _74
REMARK   34  A    between atoms: _76  and  _78
REMARK   35  A    between atoms: _78  and  _79
REMARK   36  A    between atoms: _78  and  _81
REMARK   37  A    between atoms: _81  and  _82
REMARK   38  A    between atoms: _87  and  _89
REMARK   39  A    between atoms: _89  and  _90
REMARK   40  A    between atoms: _89  and  _92
REMARK   41  A    between atoms: _92  and  _93
REMARK   42  A    between atoms: _96  and  _98
REMARK   43  A    between atoms: _98  and  _99
REMARK   44  A    between atoms: _101  and  _103
REMARK   45  A    between atoms: _103  and  _104
REMARK   46  A    between atoms: _103  and  _106
REMARK   47  A    between atoms: _106  and  _107
REMARK   48  A    between atoms: _112  and  _114
REMARK   49  A    between atoms: _114  and  _115
REMARK   50  A    between atoms: _114  and  _117
REMARK   51  A    between atoms: _117  and  _118
REMARK   52  A    between atoms: _121  and  _123
REMARK   53  A    between atoms: _123  and  _124
REMARK   54  A    between atoms: _126  and  _128
REMARK   55  A    between atoms: _128  and  _129
REMARK   56  A    between atoms: _128  and  _131
REMARK   57  A    between atoms: _131  and  _132
REMARK   58  A    between atoms: _138  and  _140
REMARK   59  A    between atoms: _140  and  _141
REMARK   60  A    between atoms: _140  and  _143
REMARK   61  A    between atoms: _143  and  _144
REMARK   62  A    between atoms: _149  and  _150
REMARK   63  A    between atoms: _152  and  _154
REMARK   64  A    between atoms: _154  and  _155
REMARK   65  A    between atoms: _158  and  _160
REMARK   66  A    between atoms: _160  and  _161
REMARK   67  A    between atoms: _160  and  _163
REMARK   68  A    between atoms: _163  and  _164
REMARK   69  A    between atoms: _167  and  _169
REMARK   70  A    between atoms: _169  and  _170
REMARK   71  A    between atoms: _169  and  _172
REMARK   72  A    between atoms: _172  and  _173
REMARK   73  A    between atoms: _178  and  _180
REMARK   74  A    between atoms: _180  and  _181
REMARK   75  A    between atoms: _180  and  _183
REMARK   76  A    between atoms: _183  and  _184
REMARK   77  A    between atoms: _184  and  _185
REMARK   78  A    between atoms: _188  and  _190
REMARK   79  A    between atoms: _190  and  _191
REMARK   80  A    between atoms: _190  and  _193
REMARK   81  A    between atoms: _193  and  _194
REMARK   82  A    between atoms: _196  and  _198
REMARK   83  A    between atoms: _198  and  _199
REMARK   84  A    between atoms: _198  and  _201
REMARK   85  A    between atoms: _201  and  _202
REMARK   86  A    between atoms: _205  and  _207
REMARK   87  A    between atoms: _207  and  _208
REMARK   88  A    between atoms: _207  and  _210
REMARK   89  A    between atoms: _210  and  _211
REMARK   90  A    between atoms: _211  and  _212
REMARK   91  A    between atoms: _212  and  _213
REMARK   92  A    between atoms: _213  and  _214
REMARK   93  A    between atoms: _218  and  _220
REMARK   94  A    between atoms: _220  and  _221
REMARK   95  A    between atoms: _220  and  _223
REMARK   96  A    between atoms: _225  and  _227
REMARK   97  A    between atoms: _227  and  _228
REMARK   98  A    between atoms: _227  and  _230
REMARK   99  A    between atoms: _230  and  _231
REMARK  100  A    between atoms: _233  and  _235
REMARK  101  A    between atoms: _235  and  _236
REMARK  102  A    between atoms: _235  and  _238
REMARK  103  A    between atoms: _238  and  _239
REMARK  104  A    between atoms: _243  and  _244
REMARK  105  A    between atoms: _249  and  _251
REMARK  106  A    between atoms: _251  and  _252
REMARK  107  A    between atoms: _251  and  _254
REMARK  108  A    between atoms: _254  and  _255
REMARK  109  A    between atoms: _257  and  _259
REMARK  110  A    between atoms: _259  and  _260
REMARK  111  A    between atoms: _262  and  _264
REMARK  112  A    between atoms: _264  and  _265
REMARK  113  A    between atoms: _264  and  _267
REMARK  114  A    between atoms: _267  and  _268
REMARK  115  A    between atoms: _271  and  _273
REMARK  116  A    between atoms: _273  and  _274
REMARK  117  A    between atoms: _273  and  _276
REMARK  118  A    between atoms: _276  and  _277
REMARK  119  A    between atoms: _280  and  _282
REMARK  120  A    between atoms: _282  and  _283
REMARK  121  A    between atoms: _286  and  _288
REMARK  122  A    between atoms: _288  and  _289
REMARK  123  A    between atoms: _288  and  _291
REMARK  124  A    between atoms: _291  and  _292
REMARK  125  A    between atoms: _297  and  _298
REMARK  126  A    between atoms: _300  and  _302
REMARK  127  A    between atoms: _302  and  _303
REMARK  128  A    between atoms: _302  and  _305
REMARK  129  A    between atoms: _305  and  _306
REMARK  130  A    between atoms: _311  and  _313
REMARK  131  A    between atoms: _313  and  _314
REMARK  132  A    between atoms: _313  and  _316
REMARK  133  A    between atoms: _316  and  _317
REMARK  134  A    between atoms: _317  and  _318
REMARK  135  A    between atoms: _318  and  _319
REMARK  136  A    between atoms: _319  and  _320
REMARK  137  A    between atoms: _324  and  _326
REMARK  138  A    between atoms: _326  and  _327
REMARK  139  A    between atoms: _326  and  _329
REMARK  140  A    between atoms: _329  and  _330
REMARK  141  A    between atoms: _332  and  _334
REMARK  142  A    between atoms: _334  and  _335
REMARK  143  A    between atoms: _334  and  _337
REMARK  144  A    between atoms: _337  and  _338
REMARK  145  A    between atoms: _341  and  _343
REMARK  146  A    between atoms: _343  and  _344
REMARK  147  A    between atoms: _343  and  _346
REMARK  148  A    between atoms: _346  and  _347
REMARK  149  A    between atoms: _350  and  _352
REMARK  150  A    between atoms: _352  and  _353
REMARK  151  A    between atoms: _352  and  _355
REMARK  152  A    between atoms: _355  and  _356
REMARK  153  A    between atoms: _356  and  _357
REMARK  154  A    between atoms: _359  and  _361
REMARK  155  A    between atoms: _361  and  _362
REMARK  156  A    between atoms: _361  and  _364
REMARK  157  A    between atoms: _364  and  _365
REMARK  158  A    between atoms: _367  and  _369
REMARK  159  A    between atoms: _369  and  _370
REMARK  160  A    between atoms: _369  and  _372
REMARK  161  A    between atoms: _375  and  _377
REMARK  162  A    between atoms: _377  and  _378
REMARK  163  A    between atoms: _377  and  _380
REMARK  164  A    between atoms: _380  and  _381
REMARK  165  A    between atoms: _384  and  _386
REMARK  166  A    between atoms: _386  and  _387
REMARK  167  A    between atoms: _386  and  _389
REMARK  168  A    between atoms: _389  and  _390
REMARK  169  A    between atoms: _395  and  _397
REMARK  170  A    between atoms: _397  and  _398
REMARK  171  A    between atoms: _397  and  _400
REMARK  172  A    between atoms: _400  and  _401
REMARK  173  A    between atoms: _404  and  _406
REMARK  174  A    between atoms: _406  and  _407
REMARK  175  A    between atoms: _406  and  _409
REMARK  176  A    between atoms: _409  and  _410
REMARK  177  A    between atoms: _416  and  _418
REMARK  178  A    between atoms: _418  and  _419
REMARK  179  A    between atoms: _418  and  _421
REMARK  180  A    between atoms: _421  and  _422
REMARK  181  A    between atoms: _422  and  _423
REMARK  182  A    between atoms: _423  and  _424
REMARK  183  A    between atoms: _433  and  _435
REMARK  184  A    between atoms: _435  and  _436
REMARK  185  A    between atoms: _435  and  _438
REMARK  186  A    between atoms: _441  and  _443
REMARK  187  A    between atoms: _443  and  _444
REMARK  188  A    between atoms: _443  and  _446
REMARK  189  A    between atoms: _446  and  _447
REMARK  190  A    between atoms: _449  and  _451
REMARK  191  A    between atoms: _451  and  _452
REMARK  192  A    between atoms: _451  and  _454
REMARK  193  A    between atoms: _454  and  _455
REMARK  194  A    between atoms: _461  and  _463
REMARK  195  A    between atoms: _463  and  _464
REMARK  196  A    between atoms: _463  and  _466
REMARK  197  A    between atoms: _466  and  _467
REMARK  198  A    between atoms: _469  and  _471
REMARK  199  A    between atoms: _471  and  _472
REMARK  200  A    between atoms: _475  and  _476
REMARK  201  A    between atoms: _481  and  _483
REMARK  202  A    between atoms: _483  and  _484
REMARK  203  A    between atoms: _483  and  _486
REMARK  204  A    between atoms: _486  and  _487
REMARK  205  A    between atoms: _493  and  _495
REMARK  206  A    between atoms: _495  and  _496
REMARK  207  A    between atoms: _495  and  _498
REMARK  208  A    between atoms: _498  and  _499
REMARK  209  A    between atoms: _505  and  _507
REMARK  210  A    between atoms: _507  and  _508
REMARK  211  A    between atoms: _507  and  _510
REMARK  212  A    between atoms: _510  and  _511
REMARK  213  A    between atoms: _511  and  _512
REMARK  214  A    between atoms: _512  and  _513
REMARK  215  A    between atoms: _522  and  _524
REMARK  216  A    between atoms: _524  and  _525
REMARK  217  A    between atoms: _527  and  _529
REMARK  218  A    between atoms: _529  and  _530
REMARK  219  A    between atoms: _529  and  _532
REMARK  220  A    between atoms: _532  and  _533
REMARK  221  A    between atoms: _536  and  _538
REMARK  222  A    between atoms: _538  and  _539
REMARK  223  A    between atoms: _541  and  _543
REMARK  224  A    between atoms: _543  and  _544
REMARK  225  A    between atoms: _543  and  _546
REMARK  226  A    between atoms: _546  and  _547
REMARK  227  A    between atoms: _547  and  _548
REMARK  228  A    between atoms: _550  and  _552
REMARK  229  A    between atoms: _552  and  _553
REMARK  230  A    between atoms: _556  and  _558
REMARK  231  A    between atoms: _558  and  _559
REMARK  232  A    between atoms: _558  and  _561
REMARK  233  A    between atoms: _561  and  _562
REMARK  234  A    between atoms: _564  and  _566
REMARK  235  A    between atoms: _566  and  _567
REMARK  236  A    between atoms: _566  and  _569
REMARK  237  A    between atoms: _569  and  _570
REMARK  238  A    between atoms: _573  and  _575
REMARK  239  A    between atoms: _575  and  _576
REMARK  240  A    between atoms: _575  and  _578
REMARK  241  A    between atoms: _578  and  _579
REMARK  242  A    between atoms: _584  and  _586
REMARK  243  A    between atoms: _586  and  _587
REMARK  244  A    between atoms: _586  and  _589
REMARK  245  A    between atoms: _589  and  _590
REMARK  246  A    between atoms: _595  and  _597
REMARK  247  A    between atoms: _597  and  _598
REMARK  248  A    between atoms: _597  and  _600
REMARK  249  A    between atoms: _603  and  _605
REMARK  250  A    between atoms: _605  and  _606
REMARK  251  A    between atoms: _605  and  _608
REMARK  252  A    between atoms: _608  and  _609
REMARK  253  A    between atoms: _614  and  _615
REMARK                            x       y       z     vdW  Elec       q    Type
REMARK                         _______ _______ _______ _____ _____    ______ ____
ROOT
ATOM      1  O   HOH     1      13.736  10.791   4.378  0.00  0.00    +0.000 OA
ENDROOT
TORSDOF 0
REMARK  Name = ../refined-set-2016/4dy6/4dy6_pocket.pdb
REMARK  253 active torsions:
REMARK  status: ('A' for Active; 'I' for Inactive)
REMARK    1  A    between atoms: _1  and  _3
REMARK    2  A    between atoms: _3  and  _4
REMARK    3  A    between atoms: _3  and  _6
REMARK    4  A    between atoms: _6  and  _7
REMARK    5  A    between atoms: _7  and  _8
REMARK    6  A    between atoms: _8  and  _9
REMARK    7  A    between atoms: _9  and  _10
REMARK    8  A    between atoms: _14  and  _16
REMARK    9  A    between atoms: _16  and  _17
REMARK   10  A    between atoms: _19  and  _21
REMARK   11  A    between atoms: _21  and  _22
REMARK   12  A    between atoms: _24  and  _26
REMARK   13  A    between atoms: _26  and  _27
REMARK   14  A    between atoms: _26  and  _29
REMARK   15  A    between atoms: _29  and  _30
REMARK   16  A    between atoms: _33  and  _35
REMARK   17  A    between atoms: _35  and  _36
REMARK   18  A    between atoms: _38  and  _40
REMARK   19  A    between atoms: _40  and  _41
REMARK   20  A    between atoms: _40  and  _43
REMARK   21  A    between atoms: _43  and  _44
REMARK   22  A    between atoms: _47  and  _49
REMARK   23  A    between atoms: _49  and  _50
REMARK   24  A    between atoms: _49  and  _52
REMARK   25  A    between atoms: _52  and  _53
REMARK   26  A    between atoms: _59  and  _61
REMARK   27  A    between atoms: _61  and  _62
REMARK   28  A    between atoms: _61  and  _64
REMARK   29  A    between atoms: _64  and  _65
REMARK   30  A    between atoms: _68  and  _70
REMARK   31  A    between atoms: _70  and  _71
REMARK   32  A    between atoms: _70  and  _73
REMARK   33  A    between atoms: _73  and  _74
REMARK   34  A    between atoms: _76  and  _78
REMARK   35  A    between atoms: _78  and  _79
REMARK   36  A    between atoms: _78  and  _81
REMARK   37  A    between atoms: _81  and  _82
REMARK   38  A    between atoms: _87  and  _89
REMARK   39  A    between atoms: _89  and  _90
REMARK   40  A    between atoms: _89  and  _92
REMARK   41  A    between atoms: _92  and  _93
REMARK   42  A    between atoms: _96  and  _98
REMARK   43  A    between atoms: _98  and  _99
REMARK   44  A    between atoms: _101  and  _103
REMARK   45  A    between atoms: _103  and  _104
REMARK   46  A    between atoms: _103  and  _106
REMARK   47  A    between atoms: _106  and  _107
REMARK   48  A    between atoms: _112  and  _114
REMARK   49  A    between atoms: _114  and  _115
REMARK   50  A    between atoms: _114  and  _117
REMARK   51  A    between atoms: _117  and  _118
REMARK   52  A    between atoms: _121  and  _123
REMARK   53  A    between atoms: _123  and  _124
REMARK   54  A    between atoms: _126  and  _128
REMARK   55  A    between atoms: _128  and  _129
REMARK   56  A    between atoms: _128  and  _131
REMARK   57  A    between atoms: _131  and  _132
REMARK   58  A    between atoms: _138  and  _140
REMARK   59  A    between atoms: _140  and  _141
REMARK   60  A    between atoms: _140  and  _143
REMARK   61  A    between atoms: _143  and  _144
REMARK   62  A    between atoms: _149  and  _150
REMARK   63  A    between atoms: _152  and  _154
REMARK   64  A    between atoms: _154  and  _155
REMARK   65  A    between atoms: _158  and  _160
REMARK   66  A    between atoms: _160  and  _161
REMARK   67  A    between atoms: _160  and  _163
REMARK   68  A    between atoms: _163  and  _164
REMARK   69  A    between atoms: _167  and  _169
REMARK   70  A    between atoms: _169  and  _170
REMARK   71  A    between atoms: _169  and  _172
REMARK   72  A    between atoms: _172  and  _173
REMARK   73  A    between atoms: _178  and  _180
REMARK   74  A    between atoms: _180  and  _181
REMARK   75  A    between atoms: _180  and  _183
REMARK   76  A    between atoms: _183  and  _184
REMARK   77  A    between atoms: _184  and  _185
REMARK   78  A    between atoms: _188  and  _190
REMARK   79  A    between atoms: _190  and  _191
REMARK   80  A    between atoms: _190  and  _193
REMARK   81  A    between atoms: _193  and  _194
REMARK   82  A    between atoms: _196  and  _198
REMARK   83  A    between atoms: _198  and  _199
REMARK   84  A    between atoms: _198  and  _201
REMARK   85  A    between atoms: _201  and  _202
REMARK   86  A    between atoms: _205  and  _207
REMARK   87  A    between atoms: _207  and  _208
REMARK   88  A    between atoms: _207  and  _210
REMARK   89  A    between atoms: _210  and  _211
REMARK   90  A    between atoms: _211  and  _212
REMARK   91  A    between atoms: _212  and  _213
REMARK   92  A    between atoms: _213  and  _214
REMARK   93  A    between atoms: _218  and  _220
REMARK   94  A    between atoms: _220  and  _221
REMARK   95  A    between atoms: _220  and  _223
REMARK   96  A    between atoms: _225  and  _227
REMARK   97  A    between atoms: _227  and  _228
REMARK   98  A    between atoms: _227  and  _230
REMARK   99  A    between atoms: _230  and  _231
REMARK  100  A    between atoms: _233  and  _235
REMARK  101  A    between atoms: _235  and  _236
REMARK  102  A    between atoms: _235  and  _238
REMARK  103  A    between atoms: _238  and  _239
REMARK  104  A    between atoms: _243  and  _244
REMARK  105  A    between atoms: _249  and  _251
REMARK  106  A    between atoms: _251  and  _252
REMARK  107  A    between atoms: _251  and  _254
REMARK  108  A    between atoms: _254  and  _255
REMARK  109  A    between atoms: _257  and  _259
REMARK  110  A    between atoms: _259  and  _260
REMARK  111  A    between atoms: _262  and  _264
REMARK  112  A    between atoms: _264  and  _265
REMARK  113  A    between atoms: _264  and  _267
REMARK  114  A    between atoms: _267  and  _268
REMARK  115  A    between atoms: _271  and  _273
REMARK  116  A    between atoms: _273  and  _274
REMARK  117  A    between atoms: _273  and  _276
REMARK  118  A    between atoms: _276  and  _277
REMARK  119  A    between atoms: _280  and  _282
REMARK  120  A    between atoms: _282  and  _283
REMARK  121  A    between atoms: _286  and  _288
REMARK  122  A    between atoms: _288  and  _289
REMARK  123  A    between atoms: _288  and  _291
REMARK  124  A    between atoms: _291  and  _292
REMARK  125  A    between atoms: _297  and  _298
REMARK  126  A    between atoms: _300  and  _302
REMARK  127  A    between atoms: _302  and  _303
REMARK  128  A    between atoms: _302  and  _305
REMARK  129  A    between atoms: _305  and  _306
REMARK  130  A    between atoms: _311  and  _313
REMARK  131  A    between atoms: _313  and  _314
REMARK  132  A    between atoms: _313  and  _316
REMARK  133  A    between atoms: _316  and  _317
REMARK  134  A    between atoms: _317  and  _318
REMARK  135  A    between atoms: _318  and  _319
REMARK  136  A    between atoms: _319  and  _320
REMARK  137  A    between atoms: _324  and  _326
REMARK  138  A    between atoms: _326  and  _327
REMARK  139  A    between atoms: _326  and  _329
REMARK  140  A    between atoms: _329  and  _330
REMARK  141  A    between atoms: _332  and  _334
REMARK  142  A    between atoms: _334  and  _335
REMARK  143  A    between atoms: _334  and  _337
REMARK  144  A    between atoms: _337  and  _338
REMARK  145  A    between atoms: _341  and  _343
REMARK  146  A    between atoms: _343  and  _344
REMARK  147  A    between atoms: _343  and  _346
REMARK  148  A    between atoms: _346  and  _347
REMARK  149  A    between atoms: _350  and  _352
REMARK  150  A    between atoms: _352  and  _353
REMARK  151  A    between atoms: _352  and  _355
REMARK  152  A    between atoms: _355  and  _356
REMARK  153  A    between atoms: _356  and  _357
REMARK  154  A    between atoms: _359  and  _361
REMARK  155  A    between atoms: _361  and  _362
REMARK  156  A    between atoms: _361  and  _364
REMARK  157  A    between atoms: _364  and  _365
REMARK  158  A    between atoms: _367  and  _369
REMARK  159  A    between atoms: _369  and  _370
REMARK  160  A    between atoms: _369  and  _372
REMARK  161  A    between atoms: _375  and  _377
REMARK  162  A    between atoms: _377  and  _378
REMARK  163  A    between atoms: _377  and  _380
REMARK  164  A    between atoms: _380  and  _381
REMARK  165  A    between atoms: _384  and  _386
REMARK  166  A    between atoms: _386  and  _387
REMARK  167  A    between atoms: _386  and  _389
REMARK  168  A    between atoms: _389  and  _390
REMARK  169  A    between atoms: _395  and  _397
REMARK  170  A    between atoms: _397  and  _398
REMARK  171  A    between atoms: _397  and  _400
REMARK  172  A    between atoms: _400  and  _401
REMARK  173  A    between atoms: _404  and  _406
REMARK  174  A    between atoms: _406  and  _407
REMARK  175  A    between atoms: _406  and  _409
REMARK  176  A    between atoms: _409  and  _410
REMARK  177  A    between atoms: _416  and  _418
REMARK  178  A    between atoms: _418  and  _419
REMARK  179  A    between atoms: _418  and  _421
REMARK  180  A    between atoms: _421  and  _422
REMARK  181  A    between atoms: _422  and  _423
REMARK  182  A    between atoms: _423  and  _424
REMARK  183  A    between atoms: _433  and  _435
REMARK  184  A    between atoms: _435  and  _436
REMARK  185  A    between atoms: _435  and  _438
REMARK  186  A    between atoms: _441  and  _443
REMARK  187  A    between atoms: _443  and  _444
REMARK  188  A    between atoms: _443  and  _446
REMARK  189  A    between atoms: _446  and  _447
REMARK  190  A    between atoms: _449  and  _451
REMARK  191  A    between atoms: _451  and  _452
REMARK  192  A    between atoms: _451  and  _454
REMARK  193  A    between atoms: _454  and  _455
REMARK  194  A    between atoms: _461  and  _463
REMARK  195  A    between atoms: _463  and  _464
REMARK  196  A    between atoms: _463  and  _466
REMARK  197  A    between atoms: _466  and  _467
REMARK  198  A    between atoms: _469  and  _471
REMARK  199  A    between atoms: _471  and  _472
REMARK  200  A    between atoms: _475  and  _476
REMARK  201  A    between atoms: _481  and  _483
REMARK  202  A    between atoms: _483  and  _484
REMARK  203  A    between atoms: _483  and  _486
REMARK  204  A    between atoms: _486  and  _487
REMARK  205  A    between atoms: _493  and  _495
REMARK  206  A    between atoms: _495  and  _496
REMARK  207  A    between atoms: _495  and  _498
REMARK  208  A    between atoms: _498  and  _499
REMARK  209  A    between atoms: _505  and  _507
REMARK  210  A    between atoms: _507  and  _508
REMARK  211  A    between atoms: _507  and  _510
REMARK  212  A    between atoms: _510  and  _511
REMARK  213  A    between atoms: _511  and  _512
REMARK  214  A    between atoms: _512  and  _513
REMARK  215  A    between atoms: _522  and  _524
REMARK  216  A    between atoms: _524  and  _525
REMARK  217  A    between atoms: _527  and  _529
REMARK  218  A    between atoms: _529  and  _530
REMARK  219  A    between atoms: _529  and  _532
REMARK  220  A    between atoms: _532  and  _533
REMARK  221  A    between atoms: _536  and  _538
REMARK  222  A    between atoms: _538  and  _539
REMARK  223  A    between atoms: _541  and  _543
REMARK  224  A    between atoms: _543  and  _544
REMARK  225  A    between atoms: _543  and  _546
REMARK  226  A    between atoms: _546  and  _547
REMARK  227  A    between atoms: _547  and  _548
REMARK  228  A    between atoms: _550  and  _552
REMARK  229  A    between atoms: _552  and  _553
REMARK  230  A    between atoms: _556  and  _558
REMARK  231  A    between atoms: _558  and  _559
REMARK  232  A    between atoms: _558  and  _561
REMARK  233  A    between atoms: _561  and  _562
REMARK  234  A    between atoms: _564  and  _566
REMARK  235  A    between atoms: _566  and  _567
REMARK  236  A    between atoms: _566  and  _569
REMARK  237  A    between atoms: _569  and  _570
REMARK  238  A    between atoms: _573  and  _575
REMARK  239  A    between atoms: _575  and  _576
REMARK  240  A    between atoms: _575  and  _578
REMARK  241  A    between atoms: _578  and  _579
REMARK  242  A    between atoms: _584  and  _586
REMARK  243  A    between atoms: _586  and  _587
REMARK  244  A    between atoms: _586  and  _589
REMARK  245  A    between atoms: _589  and  _590
REMARK  246  A    between atoms: _595  and  _597
REMARK  247  A    between atoms: _597  and  _598
REMARK  248  A    between atoms: _597  and  _600
REMARK  249  A    between atoms: _603  and  _605
REMARK  250  A    between atoms: _605  and  _606
REMARK  251  A    between atoms: _605  and  _608
REMARK  252  A    between atoms: _608  and  _609
REMARK  253  A    between atoms: _614  and  _615
REMARK                            x       y       z     vdW  Elec       q    Type
REMARK                         _______ _______ _______ _____ _____    ______ ____
ROOT
ATOM      1  O   HOH     1      20.798  11.705   4.945  0.00  0.00    +0.000 OA
ENDROOT
TORSDOF 0
REMARK  Name = ../refined-set-2016/4dy6/4dy6_pocket.pdb
REMARK  253 active torsions:
REMARK  status: ('A' for Active; 'I' for Inactive)
REMARK    1  A    between atoms: _1  and  _3
REMARK    2  A    between atoms: _3  and  _4
REMARK    3  A    between atoms: _3  and  _6
REMARK    4  A    between atoms: _6  and  _7
REMARK    5  A    between atoms: _7  and  _8
REMARK    6  A    between atoms: _8  and  _9
REMARK    7  A    between atoms: _9  and  _10
REMARK    8  A    between atoms: _14  and  _16
REMARK    9  A    between atoms: _16  and  _17
REMARK   10  A    between atoms: _19  and  _21
REMARK   11  A    between atoms: _21  and  _22
REMARK   12  A    between atoms: _24  and  _26
REMARK   13  A    between atoms: _26  and  _27
REMARK   14  A    between atoms: _26  and  _29
REMARK   15  A    between atoms: _29  and  _30
REMARK   16  A    between atoms: _33  and  _35
REMARK   17  A    between atoms: _35  and  _36
REMARK   18  A    between atoms: _38  and  _40
REMARK   19  A    between atoms: _40  and  _41
REMARK   20  A    between atoms: _40  and  _43
REMARK   21  A    between atoms: _43  and  _44
REMARK   22  A    between atoms: _47  and  _49
REMARK   23  A    between atoms: _49  and  _50
REMARK   24  A    between atoms: _49  and  _52
REMARK   25  A    between atoms: _52  and  _53
REMARK   26  A    between atoms: _59  and  _61
REMARK   27  A    between atoms: _61  and  _62
REMARK   28  A    between atoms: _61  and  _64
REMARK   29  A    between atoms: _64  and  _65
REMARK   30  A    between atoms: _68  and  _70
REMARK   31  A    between atoms: _70  and  _71
REMARK   32  A    between atoms: _70  and  _73
REMARK   33  A    between atoms: _73  and  _74
REMARK   34  A    between atoms: _76  and  _78
REMARK   35  A    between atoms: _78  and  _79
REMARK   36  A    between atoms: _78  and  _81
REMARK   37  A    between atoms: _81  and  _82
REMARK   38  A    between atoms: _87  and  _89
REMARK   39  A    between atoms: _89  and  _90
REMARK   40  A    between atoms: _89  and  _92
REMARK   41  A    between atoms: _92  and  _93
REMARK   42  A    between atoms: _96  and  _98
REMARK   43  A    between atoms: _98  and  _99
REMARK   44  A    between atoms: _101  and  _103
REMARK   45  A    between atoms: _103  and  _104
REMARK   46  A    between atoms: _103  and  _106
REMARK   47  A    between atoms: _106  and  _107
REMARK   48  A    between atoms: _112  and  _114
REMARK   49  A    between atoms: _114  and  _115
REMARK   50  A    between atoms: _114  and  _117
REMARK   51  A    between atoms: _117  and  _118
REMARK   52  A    between atoms: _121  and  _123
REMARK   53  A    between atoms: _123  and  _124
REMARK   54  A    between atoms: _126  and  _128
REMARK   55  A    between atoms: _128  and  _129
REMARK   56  A    between atoms: _128  and  _131
REMARK   57  A    between atoms: _131  and  _132
REMARK   58  A    between atoms: _138  and  _140
REMARK   59  A    between atoms: _140  and  _141
REMARK   60  A    between atoms: _140  and  _143
REMARK   61  A    between atoms: _143  and  _144
REMARK   62  A    between atoms: _149  and  _150
REMARK   63  A    between atoms: _152  and  _154
REMARK   64  A    between atoms: _154  and  _155
REMARK   65  A    between atoms: _158  and  _160
REMARK   66  A    between atoms: _160  and  _161
REMARK   67  A    between atoms: _160  and  _163
REMARK   68  A    between atoms: _163  and  _164
REMARK   69  A    between atoms: _167  and  _169
REMARK   70  A    between atoms: _169  and  _170
REMARK   71  A    between atoms: _169  and  _172
REMARK   72  A    between atoms: _172  and  _173
REMARK   73  A    between atoms: _178  and  _180
REMARK   74  A    between atoms: _180  and  _181
REMARK   75  A    between atoms: _180  and  _183
REMARK   76  A    between atoms: _183  and  _184
REMARK   77  A    between atoms: _184  and  _185
REMARK   78  A    between atoms: _188  and  _190
REMARK   79  A    between atoms: _190  and  _191
REMARK   80  A    between atoms: _190  and  _193
REMARK   81  A    between atoms: _193  and  _194
REMARK   82  A    between atoms: _196  and  _198
REMARK   83  A    between atoms: _198  and  _199
REMARK   84  A    between atoms: _198  and  _201
REMARK   85  A    between atoms: _201  and  _202
REMARK   86  A    between atoms: _205  and  _207
REMARK   87  A    between atoms: _207  and  _208
REMARK   88  A    between atoms: _207  and  _210
REMARK   89  A    between atoms: _210  and  _211
REMARK   90  A    between atoms: _211  and  _212
REMARK   91  A    between atoms: _212  and  _213
REMARK   92  A    between atoms: _213  and  _214
REMARK   93  A    between atoms: _218  and  _220
REMARK   94  A    between atoms: _220  and  _221
REMARK   95  A    between atoms: _220  and  _223
REMARK   96  A    between atoms: _225  and  _227
REMARK   97  A    between atoms: _227  and  _228
REMARK   98  A    between atoms: _227  and  _230
REMARK   99  A    between atoms: _230  and  _231
REMARK  100  A    between atoms: _233  and  _235
REMARK  101  A    between atoms: _235  and  _236
REMARK  102  A    between atoms: _235  and  _238
REMARK  103  A    between atoms: _238  and  _239
REMARK  104  A    between atoms: _243  and  _244
REMARK  105  A    between atoms: _249  and  _251
REMARK  106  A    between atoms: _251  and  _252
REMARK  107  A    between atoms: _251  and  _254
REMARK  108  A    between atoms: _254  and  _255
REMARK  109  A    between atoms: _257  and  _259
REMARK  110  A    between atoms: _259  and  _260
REMARK  111  A    between atoms: _262  and  _264
REMARK  112  A    between atoms: _264  and  _265
REMARK  113  A    between atoms: _264  and  _267
REMARK  114  A    between atoms: _267  and  _268
REMARK  115  A    between atoms: _271  and  _273
REMARK  116  A    between atoms: _273  and  _274
REMARK  117  A    between atoms: _273  and  _276
REMARK  118  A    between atoms: _276  and  _277
REMARK  119  A    between atoms: _280  and  _282
REMARK  120  A    between atoms: _282  and  _283
REMARK  121  A    between atoms: _286  and  _288
REMARK  122  A    between atoms: _288  and  _289
REMARK  123  A    between atoms: _288  and  _291
REMARK  124  A    between atoms: _291  and  _292
REMARK  125  A    between atoms: _297  and  _298
REMARK  126  A    between atoms: _300  and  _302
REMARK  127  A    between atoms: _302  and  _303
REMARK  128  A    between atoms: _302  and  _305
REMARK  129  A    between atoms: _305  and  _306
REMARK  130  A    between atoms: _311  and  _313
REMARK  131  A    between atoms: _313  and  _314
REMARK  132  A    between atoms: _313  and  _316
REMARK  133  A    between atoms: _316  and  _317
REMARK  134  A    between atoms: _317  and  _318
REMARK  135  A    between atoms: _318  and  _319
REMARK  136  A    between atoms: _319  and  _320
REMARK  137  A    between atoms: _324  and  _326
REMARK  138  A    between atoms: _326  and  _327
REMARK  139  A    between atoms: _326  and  _329
REMARK  140  A    between atoms: _329  and  _330
REMARK  141  A    between atoms: _332  and  _334
REMARK  142  A    between atoms: _334  and  _335
REMARK  143  A    between atoms: _334  and  _337
REMARK  144  A    between atoms: _337  and  _338
REMARK  145  A    between atoms: _341  and  _343
REMARK  146  A    between atoms: _343  and  _344
REMARK  147  A    between atoms: _343  and  _346
REMARK  148  A    between atoms: _346  and  _347
REMARK  149  A    between atoms: _350  and  _352
REMARK  150  A    between atoms: _352  and  _353
REMARK  151  A    between atoms: _352  and  _355
REMARK  152  A    between atoms: _355  and  _356
REMARK  153  A    between atoms: _356  and  _357
REMARK  154  A    between atoms: _359  and  _361
REMARK  155  A    between atoms: _361  and  _362
REMARK  156  A    between atoms: _361  and  _364
REMARK  157  A    between atoms: _364  and  _365
REMARK  158  A    between atoms: _367  and  _369
REMARK  159  A    between atoms: _369  and  _370
REMARK  160  A    between atoms: _369  and  _372
REMARK  161  A    between atoms: _375  and  _377
REMARK  162  A    between atoms: _377  and  _378
REMARK  163  A    between atoms: _377  and  _380
REMARK  164  A    between atoms: _380  and  _381
REMARK  165  A    between atoms: _384  and  _386
REMARK  166  A    between atoms: _386  and  _387
REMARK  167  A    between atoms: _386  and  _389
REMARK  168  A    between atoms: _389  and  _390
REMARK  169  A    between atoms: _395  and  _397
REMARK  170  A    between atoms: _397  and  _398
REMARK  171  A    between atoms: _397  and  _400
REMARK  172  A    between atoms: _400  and  _401
REMARK  173  A    between atoms: _404  and  _406
REMARK  174  A    between atoms: _406  and  _407
REMARK  175  A    between atoms: _406  and  _409
REMARK  176  A    between atoms: _409  and  _410
REMARK  177  A    between atoms: _416  and  _418
REMARK  178  A    between atoms: _418  and  _419
REMARK  179  A    between atoms: _418  and  _421
REMARK  180  A    between atoms: _421  and  _422
REMARK  181  A    between atoms: _422  and  _423
REMARK  182  A    between atoms: _423  and  _424
REMARK  183  A    between atoms: _433  and  _435
REMARK  184  A    between atoms: _435  and  _436
REMARK  185  A    between atoms: _435  and  _438
REMARK  186  A    between atoms: _441  and  _443
REMARK  187  A    between atoms: _443  and  _444
REMARK  188  A    between atoms: _443  and  _446
REMARK  189  A    between atoms: _446  and  _447
REMARK  190  A    between atoms: _449  and  _451
REMARK  191  A    between atoms: _451  and  _452
REMARK  192  A    between atoms: _451  and  _454
REMARK  193  A    between atoms: _454  and  _455
REMARK  194  A    between atoms: _461  and  _463
REMARK  195  A    between atoms: _463  and  _464
REMARK  196  A    between atoms: _463  and  _466
REMARK  197  A    between atoms: _466  and  _467
REMARK  198  A    between atoms: _469  and  _471
REMARK  199  A    between atoms: _471  and  _472
REMARK  200  A    between atoms: _475  and  _476
REMARK  201  A    between atoms: _481  and  _483
REMARK  202  A    between atoms: _483  and  _484
REMARK  203  A    between atoms: _483  and  _486
REMARK  204  A    between atoms: _486  and  _487
REMARK  205  A    between atoms: _493  and  _495
REMARK  206  A    between atoms: _495  and  _496
REMARK  207  A    between atoms: _495  and  _498
REMARK  208  A    between atoms: _498  and  _499
REMARK  209  A    between atoms: _505  and  _507
REMARK  210  A    between atoms: _507  and  _508
REMARK  211  A    between atoms: _507  and  _510
REMARK  212  A    between atoms: _510  and  _511
REMARK  213  A    between atoms: _511  and  _512
REMARK  214  A    between atoms: _512  and  _513
REMARK  215  A    between atoms: _522  and  _524
REMARK  216  A    between atoms: _524  and  _525
REMARK  217  A    between atoms: _527  and  _529
REMARK  218  A    between atoms: _529  and  _530
REMARK  219  A    between atoms: _529  and  _532
REMARK  220  A    between atoms: _532  and  _533
REMARK  221  A    between atoms: _536  and  _538
REMARK  222  A    between atoms: _538  and  _539
REMARK  223  A    between atoms: _541  and  _543
REMARK  224  A    between atoms: _543  and  _544
REMARK  225  A    between atoms: _543  and  _546
REMARK  226  A    between atoms: _546  and  _547
REMARK  227  A    between atoms: _547  and  _548
REMARK  228  A    between atoms: _550  and  _552
REMARK  229  A    between atoms: _552  and  _553
REMARK  230  A    between atoms: _556  and  _558
REMARK  231  A    between atoms: _558  and  _559
REMARK  232  A    between atoms: _558  and  _561
REMARK  233  A    between atoms: _561  and  _562
REMARK  234  A    between atoms: _564  and  _566
REMARK  235  A    between atoms: _566  and  _567
REMARK  236  A    between atoms: _566  and  _569
REMARK  237  A    between atoms: _569  and  _570
REMARK  238  A    between atoms: _573  and  _575
REMARK  239  A    between atoms: _575  and  _576
REMARK  240  A    between atoms: _575  and  _578
REMARK  241  A    between atoms: _578  and  _579
REMARK  242  A    between atoms: _584  and  _586
REMARK  243  A    between atoms: _586  and  _587
REMARK  244  A    between atoms: _586  and  _589
REMARK  245  A    between atoms: _589  and  _590
REMARK  246  A    between atoms: _595  and  _597
REMARK  247  A    between atoms: _597  and  _598
REMARK  248  A    between atoms: _597  and  _600
REMARK  249  A    between atoms: _603  and  _605
REMARK  250  A    between atoms: _605  and  _606
REMARK  251  A    between atoms: _605  and  _608
REMARK  252  A    between atoms: _608  and  _609
REMARK  253  A    between atoms: _614  and  _615
REMARK                            x       y       z     vdW  Elec       q    Type
REMARK                         _______ _______ _______ _____ _____    ______ ____
ROOT
ATOM      1  O   HOH     1      24.331   5.000  10.097  0.00  0.00    +0.000 OA
ENDROOT
TORSDOF 0
REMARK  Name = ../refined-set-2016/4dy6/4dy6_pocket.pdb
REMARK  253 active torsions:
REMARK  status: ('A' for Active; 'I' for Inactive)
REMARK    1  A    between atoms: _1  and  _3
REMARK    2  A    between atoms: _3  and  _4
REMARK    3  A    between atoms: _3  and  _6
REMARK    4  A    between atoms: _6  and  _7
REMARK    5  A    between atoms: _7  and  _8
REMARK    6  A    between atoms: _8  and  _9
REMARK    7  A    between atoms: _9  and  _10
REMARK    8  A    between atoms: _14  and  _16
REMARK    9  A    between atoms: _16  and  _17
REMARK   10  A    between atoms: _19  and  _21
REMARK   11  A    between atoms: _21  and  _22
REMARK   12  A    between atoms: _24  and  _26
REMARK   13  A    between atoms: _26  and  _27
REMARK   14  A    between atoms: _26  and  _29
REMARK   15  A    between atoms: _29  and  _30
REMARK   16  A    between atoms: _33  and  _35
REMARK   17  A    between atoms: _35  and  _36
REMARK   18  A    between atoms: _38  and  _40
REMARK   19  A    between atoms: _40  and  _41
REMARK   20  A    between atoms: _40  and  _43
REMARK   21  A    between atoms: _43  and  _44
REMARK   22  A    between atoms: _47  and  _49
REMARK   23  A    between atoms: _49  and  _50
REMARK   24  A    between atoms: _49  and  _52
REMARK   25  A    between atoms: _52  and  _53
REMARK   26  A    between atoms: _59  and  _61
REMARK   27  A    between atoms: _61  and  _62
REMARK   28  A    between atoms: _61  and  _64
REMARK   29  A    between atoms: _64  and  _65
REMARK   30  A    between atoms: _68  and  _70
REMARK   31  A    between atoms: _70  and  _71
REMARK   32  A    between atoms: _70  and  _73
REMARK   33  A    between atoms: _73  and  _74
REMARK   34  A    between atoms: _76  and  _78
REMARK   35  A    between atoms: _78  and  _79
REMARK   36  A    between atoms: _78  and  _81
REMARK   37  A    between atoms: _81  and  _82
REMARK   38  A    between atoms: _87  and  _89
REMARK   39  A    between atoms: _89  and  _90
REMARK   40  A    between atoms: _89  and  _92
REMARK   41  A    between atoms: _92  and  _93
REMARK   42  A    between atoms: _96  and  _98
REMARK   43  A    between atoms: _98  and  _99
REMARK   44  A    between atoms: _101  and  _103
REMARK   45  A    between atoms: _103  and  _104
REMARK   46  A    between atoms: _103  and  _106
REMARK   47  A    between atoms: _106  and  _107
REMARK   48  A    between atoms: _112  and  _114
REMARK   49  A    between atoms: _114  and  _115
REMARK   50  A    between atoms: _114  and  _117
REMARK   51  A    between atoms: _117  and  _118
REMARK   52  A    between atoms: _121  and  _123
REMARK   53  A    between atoms: _123  and  _124
REMARK   54  A    between atoms: _126  and  _128
REMARK   55  A    between atoms: _128  and  _129
REMARK   56  A    between atoms: _128  and  _131
REMARK   57  A    between atoms: _131  and  _132
REMARK   58  A    between atoms: _138  and  _140
REMARK   59  A    between atoms: _140  and  _141
REMARK   60  A    between atoms: _140  and  _143
REMARK   61  A    between atoms: _143  and  _144
REMARK   62  A    between atoms: _149  and  _150
REMARK   63  A    between atoms: _152  and  _154
REMARK   64  A    between atoms: _154  and  _155
REMARK   65  A    between atoms: _158  and  _160
REMARK   66  A    between atoms: _160  and  _161
REMARK   67  A    between atoms: _160  and  _163
REMARK   68  A    between atoms: _163  and  _164
REMARK   69  A    between atoms: _167  and  _169
REMARK   70  A    between atoms: _169  and  _170
REMARK   71  A    between atoms: _169  and  _172
REMARK   72  A    between atoms: _172  and  _173
REMARK   73  A    between atoms: _178  and  _180
REMARK   74  A    between atoms: _180  and  _181
REMARK   75  A    between atoms: _180  and  _183
REMARK   76  A    between atoms: _183  and  _184
REMARK   77  A    between atoms: _184  and  _185
REMARK   78  A    between atoms: _188  and  _190
REMARK   79  A    between atoms: _190  and  _191
REMARK   80  A    between atoms: _190  and  _193
REMARK   81  A    between atoms: _193  and  _194
REMARK   82  A    between atoms: _196  and  _198
REMARK   83  A    between atoms: _198  and  _199
REMARK   84  A    between atoms: _198  and  _201
REMARK   85  A    between atoms: _201  and  _202
REMARK   86  A    between atoms: _205  and  _207
REMARK   87  A    between atoms: _207  and  _208
REMARK   88  A    between atoms: _207  and  _210
REMARK   89  A    between atoms: _210  and  _211
REMARK   90  A    between atoms: _211  and  _212
REMARK   91  A    between atoms: _212  and  _213
REMARK   92  A    between atoms: _213  and  _214
REMARK   93  A    between atoms: _218  and  _220
REMARK   94  A    between atoms: _220  and  _221
REMARK   95  A    between atoms: _220  and  _223
REMARK   96  A    between atoms: _225  and  _227
REMARK   97  A    between atoms: _227  and  _228
REMARK   98  A    between atoms: _227  and  _230
REMARK   99  A    between atoms: _230  and  _231
REMARK  100  A    between atoms: _233  and  _235
REMARK  101  A    between atoms: _235  and  _236
REMARK  102  A    between atoms: _235  and  _238
REMARK  103  A    between atoms: _238  and  _239
REMARK  104  A    between atoms: _243  and  _244
REMARK  105  A    between atoms: _249  and  _251
REMARK  106  A    between atoms: _251  and  _252
REMARK  107  A    between atoms: _251  and  _254
REMARK  108  A    between atoms: _254  and  _255
REMARK  109  A    between atoms: _257  and  _259
REMARK  110  A    between atoms: _259  and  _260
REMARK  111  A    between atoms: _262  and  _264
REMARK  112  A    between atoms: _264  and  _265
REMARK  113  A    between atoms: _264  and  _267
REMARK  114  A    between atoms: _267  and  _268
REMARK  115  A    between atoms: _271  and  _273
REMARK  116  A    between atoms: _273  and  _274
REMARK  117  A    between atoms: _273  and  _276
REMARK  118  A    between atoms: _276  and  _277
REMARK  119  A    between atoms: _280  and  _282
REMARK  120  A    between atoms: _282  and  _283
REMARK  121  A    between atoms: _286  and  _288
REMARK  122  A    between atoms: _288  and  _289
REMARK  123  A    between atoms: _288  and  _291
REMARK  124  A    between atoms: _291  and  _292
REMARK  125  A    between atoms: _297  and  _298
REMARK  126  A    between atoms: _300  and  _302
REMARK  127  A    between atoms: _302  and  _303
REMARK  128  A    between atoms: _302  and  _305
REMARK  129  A    between atoms: _305  and  _306
REMARK  130  A    between atoms: _311  and  _313
REMARK  131  A    between atoms: _313  and  _314
REMARK  132  A    between atoms: _313  and  _316
REMARK  133  A    between atoms: _316  and  _317
REMARK  134  A    between atoms: _317  and  _318
REMARK  135  A    between atoms: _318  and  _319
REMARK  136  A    between atoms: _319  and  _320
REMARK  137  A    between atoms: _324  and  _326
REMARK  138  A    between atoms: _326  and  _327
REMARK  139  A    between atoms: _326  and  _329
REMARK  140  A    between atoms: _329  and  _330
REMARK  141  A    between atoms: _332  and  _334
REMARK  142  A    between atoms: _334  and  _335
REMARK  143  A    between atoms: _334  and  _337
REMARK  144  A    between atoms: _337  and  _338
REMARK  145  A    between atoms: _341  and  _343
REMARK  146  A    between atoms: _343  and  _344
REMARK  147  A    between atoms: _343  and  _346
REMARK  148  A    between atoms: _346  and  _347
REMARK  149  A    between atoms: _350  and  _352
REMARK  150  A    between atoms: _352  and  _353
REMARK  151  A    between atoms: _352  and  _355
REMARK  152  A    between atoms: _355  and  _356
REMARK  153  A    between atoms: _356  and  _357
REMARK  154  A    between atoms: _359  and  _361
REMARK  155  A    between atoms: _361  and  _362
REMARK  156  A    between atoms: _361  and  _364
REMARK  157  A    between atoms: _364  and  _365
REMARK  158  A    between atoms: _367  and  _369
REMARK  159  A    between atoms: _369  and  _370
REMARK  160  A    between atoms: _369  and  _372
REMARK  161  A    between atoms: _375  and  _377
REMARK  162  A    between atoms: _377  and  _378
REMARK  163  A    between atoms: _377  and  _380
REMARK  164  A    between atoms: _380  and  _381
REMARK  165  A    between atoms: _384  and  _386
REMARK  166  A    between atoms: _386  and  _387
REMARK  167  A    between atoms: _386  and  _389
REMARK  168  A    between atoms: _389  and  _390
REMARK  169  A    between atoms: _395  and  _397
REMARK  170  A    between atoms: _397  and  _398
REMARK  171  A    between atoms: _397  and  _400
REMARK  172  A    between atoms: _400  and  _401
REMARK  173  A    between atoms: _404  and  _406
REMARK  174  A    between atoms: _406  and  _407
REMARK  175  A    between atoms: _406  and  _409
REMARK  176  A    between atoms: _409  and  _410
REMARK  177  A    between atoms: _416  and  _418
REMARK  178  A    between atoms: _418  and  _419
REMARK  179  A    between atoms: _418  and  _421
REMARK  180  A    between atoms: _421  and  _422
REMARK  181  A    between atoms: _422  and  _423
REMARK  182  A    between atoms: _423  and  _424
REMARK  183  A    between atoms: _433  and  _435
REMARK  184  A    between atoms: _435  and  _436
REMARK  185  A    between atoms: _435  and  _438
REMARK  186  A    between atoms: _441  and  _443
REMARK  187  A    between atoms: _443  and  _444
REMARK  188  A    between atoms: _443  and  _446
REMARK  189  A    between atoms: _446  and  _447
REMARK  190  A    between atoms: _449  and  _451
REMARK  191  A    between atoms: _451  and  _452
REMARK  192  A    between atoms: _451  and  _454
REMARK  193  A    between atoms: _454  and  _455
REMARK  194  A    between atoms: _461  and  _463
REMARK  195  A    between atoms: _463  and  _464
REMARK  196  A    between atoms: _463  and  _466
REMARK  197  A    between atoms: _466  and  _467
REMARK  198  A    between atoms: _469  and  _471
REMARK  199  A    between atoms: _471  and  _472
REMARK  200  A    between atoms: _475  and  _476
REMARK  201  A    between atoms: _481  and  _483
REMARK  202  A    between atoms: _483  and  _484
REMARK  203  A    between atoms: _483  and  _486
REMARK  204  A    between atoms: _486  and  _487
REMARK  205  A    between atoms: _493  and  _495
REMARK  206  A    between atoms: _495  and  _496
REMARK  207  A    between atoms: _495  and  _498
REMARK  208  A    between atoms: _498  and  _499
REMARK  209  A    between atoms: _505  and  _507
REMARK  210  A    between atoms: _507  and  _508
REMARK  211  A    between atoms: _507  and  _510
REMARK  212  A    between atoms: _510  and  _511
REMARK  213  A    between atoms: _511  and  _512
REMARK  214  A    between atoms: _512  and  _513
REMARK  215  A    between atoms: _522  and  _524
REMARK  216  A    between atoms: _524  and  _525
REMARK  217  A    between atoms: _527  and  _529
REMARK  218  A    between atoms: _529  and  _530
REMARK  219  A    between atoms: _529  and  _532
REMARK  220  A    between atoms: _532  and  _533
REMARK  221  A    between atoms: _536  and  _538
REMARK  222  A    between atoms: _538  and  _539
REMARK  223  A    between atoms: _541  and  _543
REMARK  224  A    between atoms: _543  and  _544
REMARK  225  A    between atoms: _543  and  _546
REMARK  226  A    between atoms: _546  and  _547
REMARK  227  A    between atoms: _547  and  _548
REMARK  228  A    between atoms: _550  and  _552
REMARK  229  A    between atoms: _552  and  _553
REMARK  230  A    between atoms: _556  and  _558
REMARK  231  A    between atoms: _558  and  _559
REMARK  232  A    between atoms: _558  and  _561
REMARK  233  A    between atoms: _561  and  _562
REMARK  234  A    between atoms: _564  and  _566
REMARK  235  A    between atoms: _566  and  _567
REMARK  236  A    between atoms: _566  and  _569
REMARK  237  A    between atoms: _569  and  _570
REMARK  238  A    between atoms: _573  and  _575
REMARK  239  A    between atoms: _575  and  _576
REMARK  240  A    between atoms: _575  and  _578
REMARK  241  A    between atoms: _578  and  _579
REMARK  242  A    between atoms: _584  and  _586
REMARK  243  A    between atoms: _586  and  _587
REMARK  244  A    between atoms: _586  and  _589
REMARK  245  A    between atoms: _589  and  _590
REMARK  246  A    between atoms: _595  and  _597
REMARK  247  A    between atoms: _597  and  _598
REMARK  248  A    between atoms: _597  and  _600
REMARK  249  A    between atoms: _603  and  _605
REMARK  250  A    between atoms: _605  and  _606
REMARK  251  A    between atoms: _605  and  _608
REMARK  252  A    between atoms: _608  and  _609
REMARK  253  A    between atoms: _614  and  _615
REMARK                            x       y       z     vdW  Elec       q    Type
REMARK                         _______ _______ _______ _____ _____    ______ ____
ROOT
ATOM      1  O   HOH     1      15.000  17.276  20.682  0.00  0.00    +0.000 OA
ENDROOT
TORSDOF 0
REMARK  Name = ../refined-set-2016/4dy6/4dy6_pocket.pdb
REMARK  253 active torsions:
REMARK  status: ('A' for Active; 'I' for Inactive)
REMARK    1  A    between atoms: _1  and  _3
REMARK    2  A    between atoms: _3  and  _4
REMARK    3  A    between atoms: _3  and  _6
REMARK    4  A    between atoms: _6  and  _7
REMARK    5  A    between atoms: _7  and  _8
REMARK    6  A    between atoms: _8  and  _9
REMARK    7  A    between atoms: _9  and  _10
REMARK    8  A    between atoms: _14  and  _16
REMARK    9  A    between atoms: _16  and  _17
REMARK   10  A    between atoms: _19  and  _21
REMARK   11  A    between atoms: _21  and  _22
REMARK   12  A    between atoms: _24  and  _26
REMARK   13  A    between atoms: _26  and  _27
REMARK   14  A    between atoms: _26  and  _29
REMARK   15  A    between atoms: _29  and  _30
REMARK   16  A    between atoms: _33  and  _35
REMARK   17  A    between atoms: _35  and  _36
REMARK   18  A    between atoms: _38  and  _40
REMARK   19  A    between atoms: _40  and  _41
REMARK   20  A    between atoms: _40  and  _43
REMARK   21  A    between atoms: _43  and  _44
REMARK   22  A    between atoms: _47  and  _49
REMARK   23  A    between atoms: _49  and  _50
REMARK   24  A    between atoms: _49  and  _52
REMARK   25  A    between atoms: _52  and  _53
REMARK   26  A    between atoms: _59  and  _61
REMARK   27  A    between atoms: _61  and  _62
REMARK   28  A    between atoms: _61  and  _64
REMARK   29  A    between atoms: _64  and  _65
REMARK   30  A    between atoms: _68  and  _70
REMARK   31  A    between atoms: _70  and  _71
REMARK   32  A    between atoms: _70  and  _73
REMARK   33  A    between atoms: _73  and  _74
REMARK   34  A    between atoms: _76  and  _78
REMARK   35  A    between atoms: _78  and  _79
REMARK   36  A    between atoms: _78  and  _81
REMARK   37  A    between atoms: _81  and  _82
REMARK   38  A    between atoms: _87  and  _89
REMARK   39  A    between atoms: _89  and  _90
REMARK   40  A    between atoms: _89  and  _92
REMARK   41  A    between atoms: _92  and  _93
REMARK   42  A    between atoms: _96  and  _98
REMARK   43  A    between atoms: _98  and  _99
REMARK   44  A    between atoms: _101  and  _103
REMARK   45  A    between atoms: _103  and  _104
REMARK   46  A    between atoms: _103  and  _106
REMARK   47  A    between atoms: _106  and  _107
REMARK   48  A    between atoms: _112  and  _114
REMARK   49  A    between atoms: _114  and  _115
REMARK   50  A    between atoms: _114  and  _117
REMARK   51  A    between atoms: _117  and  _118
REMARK   52  A    between atoms: _121  and  _123
REMARK   53  A    between atoms: _123  and  _124
REMARK   54  A    between atoms: _126  and  _128
REMARK   55  A    between atoms: _128  and  _129
REMARK   56  A    between atoms: _128  and  _131
REMARK   57  A    between atoms: _131  and  _132
REMARK   58  A    between atoms: _138  and  _140
REMARK   59  A    between atoms: _140  and  _141
REMARK   60  A    between atoms: _140  and  _143
REMARK   61  A    between atoms: _143  and  _144
REMARK   62  A    between atoms: _149  and  _150
REMARK   63  A    between atoms: _152  and  _154
REMARK   64  A    between atoms: _154  and  _155
REMARK   65  A    between atoms: _158  and  _160
REMARK   66  A    between atoms: _160  and  _161
REMARK   67  A    between atoms: _160  and  _163
REMARK   68  A    between atoms: _163  and  _164
REMARK   69  A    between atoms: _167  and  _169
REMARK   70  A    between atoms: _169  and  _170
REMARK   71  A    between atoms: _169  and  _172
REMARK   72  A    between atoms: _172  and  _173
REMARK   73  A    between atoms: _178  and  _180
REMARK   74  A    between atoms: _180  and  _181
REMARK   75  A    between atoms: _180  and  _183
REMARK   76  A    between atoms: _183  and  _184
REMARK   77  A    between atoms: _184  and  _185
REMARK   78  A    between atoms: _188  and  _190
REMARK   79  A    between atoms: _190  and  _191
REMARK   80  A    between atoms: _190  and  _193
REMARK   81  A    between atoms: _193  and  _194
REMARK   82  A    between atoms: _196  and  _198
REMARK   83  A    between atoms: _198  and  _199
REMARK   84  A    between atoms: _198  and  _201
REMARK   85  A    between atoms: _201  and  _202
REMARK   86  A    between atoms: _205  and  _207
REMARK   87  A    between atoms: _207  and  _208
REMARK   88  A    between atoms: _207  and  _210
REMARK   89  A    between atoms: _210  and  _211
REMARK   90  A    between atoms: _211  and  _212
REMARK   91  A    between atoms: _212  and  _213
REMARK   92  A    between atoms: _213  and  _214
REMARK   93  A    between atoms: _218  and  _220
REMARK   94  A    between atoms: _220  and  _221
REMARK   95  A    between atoms: _220  and  _223
REMARK   96  A    between atoms: _225  and  _227
REMARK   97  A    between atoms: _227  and  _228
REMARK   98  A    between atoms: _227  and  _230
REMARK   99  A    between atoms: _230  and  _231
REMARK  100  A    between atoms: _233  and  _235
REMARK  101  A    between atoms: _235  and  _236
REMARK  102  A    between atoms: _235  and  _238
REMARK  103  A    between atoms: _238  and  _239
REMARK  104  A    between atoms: _243  and  _244
REMARK  105  A    between atoms: _249  and  _251
REMARK  106  A    between atoms: _251  and  _252
REMARK  107  A    between atoms: _251  and  _254
REMARK  108  A    between atoms: _254  and  _255
REMARK  109  A    between atoms: _257  and  _259
REMARK  110  A    between atoms: _259  and  _260
REMARK  111  A    between atoms: _262  and  _264
REMARK  112  A    between atoms: _264  and  _265
REMARK  113  A    between atoms: _264  and  _267
REMARK  114  A    between atoms: _267  and  _268
REMARK  115  A    between atoms: _271  and  _273
REMARK  116  A    between atoms: _273  and  _274
REMARK  117  A    between atoms: _273  and  _276
REMARK  118  A    between atoms: _276  and  _277
REMARK  119  A    between atoms: _280  and  _282
REMARK  120  A    between atoms: _282  and  _283
REMARK  121  A    between atoms: _286  and  _288
REMARK  122  A    between atoms: _288  and  _289
REMARK  123  A    between atoms: _288  and  _291
REMARK  124  A    between atoms: _291  and  _292
REMARK  125  A    between atoms: _297  and  _298
REMARK  126  A    between atoms: _300  and  _302
REMARK  127  A    between atoms: _302  and  _303
REMARK  128  A    between atoms: _302  and  _305
REMARK  129  A    between atoms: _305  and  _306
REMARK  130  A    between atoms: _311  and  _313
REMARK  131  A    between atoms: _313  and  _314
REMARK  132  A    between atoms: _313  and  _316
REMARK  133  A    between atoms: _316  and  _317
REMARK  134  A    between atoms: _317  and  _318
REMARK  135  A    between atoms: _318  and  _319
REMARK  136  A    between atoms: _319  and  _320
REMARK  137  A    between atoms: _324  and  _326
REMARK  138  A    between atoms: _326  and  _327
REMARK  139  A    between atoms: _326  and  _329
REMARK  140  A    between atoms: _329  and  _330
REMARK  141  A    between atoms: _332  and  _334
REMARK  142  A    between atoms: _334  and  _335
REMARK  143  A    between atoms: _334  and  _337
REMARK  144  A    between atoms: _337  and  _338
REMARK  145  A    between atoms: _341  and  _343
REMARK  146  A    between atoms: _343  and  _344
REMARK  147  A    between atoms: _343  and  _346
REMARK  148  A    between atoms: _346  and  _347
REMARK  149  A    between atoms: _350  and  _352
REMARK  150  A    between atoms: _352  and  _353
REMARK  151  A    between atoms: _352  and  _355
REMARK  152  A    between atoms: _355  and  _356
REMARK  153  A    between atoms: _356  and  _357
REMARK  154  A    between atoms: _359  and  _361
REMARK  155  A    between atoms: _361  and  _362
REMARK  156  A    between atoms: _361  and  _364
REMARK  157  A    between atoms: _364  and  _365
REMARK  158  A    between atoms: _367  and  _369
REMARK  159  A    between atoms: _369  and  _370
REMARK  160  A    between atoms: _369  and  _372
REMARK  161  A    between atoms: _375  and  _377
REMARK  162  A    between atoms: _377  and  _378
REMARK  163  A    between atoms: _377  and  _380
REMARK  164  A    between atoms: _380  and  _381
REMARK  165  A    between atoms: _384  and  _386
REMARK  166  A    between atoms: _386  and  _387
REMARK  167  A    between atoms: _386  and  _389
REMARK  168  A    between atoms: _389  and  _390
REMARK  169  A    between atoms: _395  and  _397
REMARK  170  A    between atoms: _397  and  _398
REMARK  171  A    between atoms: _397  and  _400
REMARK  172  A    between atoms: _400  and  _401
REMARK  173  A    between atoms: _404  and  _406
REMARK  174  A    between atoms: _406  and  _407
REMARK  175  A    between atoms: _406  and  _409
REMARK  176  A    between atoms: _409  and  _410
REMARK  177  A    between atoms: _416  and  _418
REMARK  178  A    between atoms: _418  and  _419
REMARK  179  A    between atoms: _418  and  _421
REMARK  180  A    between atoms: _421  and  _422
REMARK  181  A    between atoms: _422  and  _423
REMARK  182  A    between atoms: _423  and  _424
REMARK  183  A    between atoms: _433  and  _435
REMARK  184  A    between atoms: _435  and  _436
REMARK  185  A    between atoms: _435  and  _438
REMARK  186  A    between atoms: _441  and  _443
REMARK  187  A    between atoms: _443  and  _444
REMARK  188  A    between atoms: _443  and  _446
REMARK  189  A    between atoms: _446  and  _447
REMARK  190  A    between atoms: _449  and  _451
REMARK  191  A    between atoms: _451  and  _452
REMARK  192  A    between atoms: _451  and  _454
REMARK  193  A    between atoms: _454  and  _455
REMARK  194  A    between atoms: _461  and  _463
REMARK  195  A    between atoms: _463  and  _464
REMARK  196  A    between atoms: _463  and  _466
REMARK  197  A    between atoms: _466  and  _467
REMARK  198  A    between atoms: _469  and  _471
REMARK  199  A    between atoms: _471  and  _472
REMARK  200  A    between atoms: _475  and  _476
REMARK  201  A    between atoms: _481  and  _483
REMARK  202  A    between atoms: _483  and  _484
REMARK  203  A    between atoms: _483  and  _486
REMARK  204  A    between atoms: _486  and  _487
REMARK  205  A    between atoms: _493  and  _495
REMARK  206  A    between atoms: _495  and  _496
REMARK  207  A    between atoms: _495  and  _498
REMARK  208  A    between atoms: _498  and  _499
REMARK  209  A    between atoms: _505  and  _507
REMARK  210  A    between atoms: _507  and  _508
REMARK  211  A    between atoms: _507  and  _510
REMARK  212  A    between atoms: _510  and  _511
REMARK  213  A    between atoms: _511  and  _512
REMARK  214  A    between atoms: _512  and  _513
REMARK  215  A    between atoms: _522  and  _524
REMARK  216  A    between atoms: _524  and  _525
REMARK  217  A    between atoms: _527  and  _529
REMARK  218  A    between atoms: _529  and  _530
REMARK  219  A    between atoms: _529  and  _532
REMARK  220  A    between atoms: _532  and  _533
REMARK  221  A    between atoms: _536  and  _538
REMARK  222  A    between atoms: _538  and  _539
REMARK  223  A    between atoms: _541  and  _543
REMARK  224  A    between atoms: _543  and  _544
REMARK  225  A    between atoms: _543  and  _546
REMARK  226  A    between atoms: _546  and  _547
REMARK  227  A    between atoms: _547  and  _548
REMARK  228  A    between atoms: _550  and  _552
REMARK  229  A    between atoms: _552  and  _553
REMARK  230  A    between atoms: _556  and  _558
REMARK  231  A    between atoms: _558  and  _559
REMARK  232  A    between atoms: _558  and  _561
REMARK  233  A    between atoms: _561  and  _562
REMARK  234  A    between atoms: _564  and  _566
REMARK  235  A    between atoms: _566  and  _567
REMARK  236  A    between atoms: _566  and  _569
REMARK  237  A    between atoms: _569  and  _570
REMARK  238  A    between atoms: _573  and  _575
REMARK  239  A    between atoms: _575  and  _576
REMARK  240  A    between atoms: _575  and  _578
REMARK  241  A    between atoms: _578  and  _579
REMARK  242  A    between atoms: _584  and  _586
REMARK  243  A    between atoms: _586  and  _587
REMARK  244  A    between atoms: _586  and  _589
REMARK  245  A    between atoms: _589  and  _590
REMARK  246  A    between atoms: _595  and  _597
REMARK  247  A    between atoms: _597  and  _598
REMARK  248  A    between atoms: _597  and  _600
REMARK  249  A    between atoms: _603  and  _605
REMARK  250  A    between atoms: _605  and  _606
REMARK  251  A    between atoms: _605  and  _608
REMARK  252  A    between atoms: _608  and  _609
REMARK  253  A    between atoms: _614  and  _615
REMARK                            x       y       z     vdW  Elec       q    Type
REMARK                         _______ _______ _______ _____ _____    ______ ____
ROOT
ATOM      1  O   HOH     1      18.640   0.543   0.839  0.00  0.00    +0.000 OA
ENDROOT
TORSDOF 0
REMARK  Name = ../refined-set-2016/4dy6/4dy6_pocket.pdb
REMARK  253 active torsions:
REMARK  status: ('A' for Active; 'I' for Inactive)
REMARK    1  A    between atoms: _1  and  _3
REMARK    2  A    between atoms: _3  and  _4
REMARK    3  A    between atoms: _3  and  _6
REMARK    4  A    between atoms: _6  and  _7
REMARK    5  A    between atoms: _7  and  _8
REMARK    6  A    between atoms: _8  and  _9
REMARK    7  A    between atoms: _9  and  _10
REMARK    8  A    between atoms: _14  and  _16
REMARK    9  A    between atoms: _16  and  _17
REMARK   10  A    between atoms: _19  and  _21
REMARK   11  A    between atoms: _21  and  _22
REMARK   12  A    between atoms: _24  and  _26
REMARK   13  A    between atoms: _26  and  _27
REMARK   14  A    between atoms: _26  and  _29
REMARK   15  A    between atoms: _29  and  _30
REMARK   16  A    between atoms: _33  and  _35
REMARK   17  A    between atoms: _35  and  _36
REMARK   18  A    between atoms: _38  and  _40
REMARK   19  A    between atoms: _40  and  _41
REMARK   20  A    between atoms: _40  and  _43
REMARK   21  A    between atoms: _43  and  _44
REMARK   22  A    between atoms: _47  and  _49
REMARK   23  A    between atoms: _49  and  _50
REMARK   24  A    between atoms: _49  and  _52
REMARK   25  A    between atoms: _52  and  _53
REMARK   26  A    between atoms: _59  and  _61
REMARK   27  A    between atoms: _61  and  _62
REMARK   28  A    between atoms: _61  and  _64
REMARK   29  A    between atoms: _64  and  _65
REMARK   30  A    between atoms: _68  and  _70
REMARK   31  A    between atoms: _70  and  _71
REMARK   32  A    between atoms: _70  and  _73
REMARK   33  A    between atoms: _73  and  _74
REMARK   34  A    between atoms: _76  and  _78
REMARK   35  A    between atoms: _78  and  _79
REMARK   36  A    between atoms: _78  and  _81
REMARK   37  A    between atoms: _81  and  _82
REMARK   38  A    between atoms: _87  and  _89
REMARK   39  A    between atoms: _89  and  _90
REMARK   40  A    between atoms: _89  and  _92
REMARK   41  A    between atoms: _92  and  _93
REMARK   42  A    between atoms: _96  and  _98
REMARK   43  A    between atoms: _98  and  _99
REMARK   44  A    between atoms: _101  and  _103
REMARK   45  A    between atoms: _103  and  _104
REMARK   46  A    between atoms: _103  and  _106
REMARK   47  A    between atoms: _106  and  _107
REMARK   48  A    between atoms: _112  and  _114
REMARK   49  A    between atoms: _114  and  _115
REMARK   50  A    between atoms: _114  and  _117
REMARK   51  A    between atoms: _117  and  _118
REMARK   52  A    between atoms: _121  and  _123
REMARK   53  A    between atoms: _123  and  _124
REMARK   54  A    between atoms: _126  and  _128
REMARK   55  A    between atoms: _128  and  _129
REMARK   56  A    between atoms: _128  and  _131
REMARK   57  A    between atoms: _131  and  _132
REMARK   58  A    between atoms: _138  and  _140
REMARK   59  A    between atoms: _140  and  _141
REMARK   60  A    between atoms: _140  and  _143
REMARK   61  A    between atoms: _143  and  _144
REMARK   62  A    between atoms: _149  and  _150
REMARK   63  A    between atoms: _152  and  _154
REMARK   64  A    between atoms: _154  and  _155
REMARK   65  A    between atoms: _158  and  _160
REMARK   66  A    between atoms: _160  and  _161
REMARK   67  A    between atoms: _160  and  _163
REMARK   68  A    between atoms: _163  and  _164
REMARK   69  A    between atoms: _167  and  _169
REMARK   70  A    between atoms: _169  and  _170
REMARK   71  A    between atoms: _169  and  _172
REMARK   72  A    between atoms: _172  and  _173
REMARK   73  A    between atoms: _178  and  _180
REMARK   74  A    between atoms: _180  and  _181
REMARK   75  A    between atoms: _180  and  _183
REMARK   76  A    between atoms: _183  and  _184
REMARK   77  A    between atoms: _184  and  _185
REMARK   78  A    between atoms: _188  and  _190
REMARK   79  A    between atoms: _190  and  _191
REMARK   80  A    between atoms: _190  and  _193
REMARK   81  A    between atoms: _193  and  _194
REMARK   82  A    between atoms: _196  and  _198
REMARK   83  A    between atoms: _198  and  _199
REMARK   84  A    between atoms: _198  and  _201
REMARK   85  A    between atoms: _201  and  _202
REMARK   86  A    between atoms: _205  and  _207
REMARK   87  A    between atoms: _207  and  _208
REMARK   88  A    between atoms: _207  and  _210
REMARK   89  A    between atoms: _210  and  _211
REMARK   90  A    between atoms: _211  and  _212
REMARK   91  A    between atoms: _212  and  _213
REMARK   92  A    between atoms: _213  and  _214
REMARK   93  A    between atoms: _218  and  _220
REMARK   94  A    between atoms: _220  and  _221
REMARK   95  A    between atoms: _220  and  _223
REMARK   96  A    between atoms: _225  and  _227
REMARK   97  A    between atoms: _227  and  _228
REMARK   98  A    between atoms: _227  and  _230
REMARK   99  A    between atoms: _230  and  _231
REMARK  100  A    between atoms: _233  and  _235
REMARK  101  A    between atoms: _235  and  _236
REMARK  102  A    between atoms: _235  and  _238
REMARK  103  A    between atoms: _238  and  _239
REMARK  104  A    between atoms: _243  and  _244
REMARK  105  A    between atoms: _249  and  _251
REMARK  106  A    between atoms: _251  and  _252
REMARK  107  A    between atoms: _251  and  _254
REMARK  108  A    between atoms: _254  and  _255
REMARK  109  A    between atoms: _257  and  _259
REMARK  110  A    between atoms: _259  and  _260
REMARK  111  A    between atoms: _262  and  _264
REMARK  112  A    between atoms: _264  and  _265
REMARK  113  A    between atoms: _264  and  _267
REMARK  114  A    between atoms: _267  and  _268
REMARK  115  A    between atoms: _271  and  _273
REMARK  116  A    between atoms: _273  and  _274
REMARK  117  A    between atoms: _273  and  _276
REMARK  118  A    between atoms: _276  and  _277
REMARK  119  A    between atoms: _280  and  _282
REMARK  120  A    between atoms: _282  and  _283
REMARK  121  A    between atoms: _286  and  _288
REMARK  122  A    between atoms: _288  and  _289
REMARK  123  A    between atoms: _288  and  _291
REMARK  124  A    between atoms: _291  and  _292
REMARK  125  A    between atoms: _297  and  _298
REMARK  126  A    between atoms: _300  and  _302
REMARK  127  A    between atoms: _302  and  _303
REMARK  128  A    between atoms: _302  and  _305
REMARK  129  A    between atoms: _305  and  _306
REMARK  130  A    between atoms: _311  and  _313
REMARK  131  A    between atoms: _313  and  _314
REMARK  132  A    between atoms: _313  and  _316
REMARK  133  A    between atoms: _316  and  _317
REMARK  134  A    between atoms: _317  and  _318
REMARK  135  A    between atoms: _318  and  _319
REMARK  136  A    between atoms: _319  and  _320
REMARK  137  A    between atoms: _324  and  _326
REMARK  138  A    between atoms: _326  and  _327
REMARK  139  A    between atoms: _326  and  _329
REMARK  140  A    between atoms: _329  and  _330
REMARK  141  A    between atoms: _332  and  _334
REMARK  142  A    between atoms: _334  and  _335
REMARK  143  A    between atoms: _334  and  _337
REMARK  144  A    between atoms: _337  and  _338
REMARK  145  A    between atoms: _341  and  _343
REMARK  146  A    between atoms: _343  and  _344
REMARK  147  A    between atoms: _343  and  _346
REMARK  148  A    between atoms: _346  and  _347
REMARK  149  A    between atoms: _350  and  _352
REMARK  150  A    between atoms: _352  and  _353
REMARK  151  A    between atoms: _352  and  _355
REMARK  152  A    between atoms: _355  and  _356
REMARK  153  A    between atoms: _356  and  _357
REMARK  154  A    between atoms: _359  and  _361
REMARK  155  A    between atoms: _361  and  _362
REMARK  156  A    between atoms: _361  and  _364
REMARK  157  A    between atoms: _364  and  _365
REMARK  158  A    between atoms: _367  and  _369
REMARK  159  A    between atoms: _369  and  _370
REMARK  160  A    between atoms: _369  and  _372
REMARK  161  A    between atoms: _375  and  _377
REMARK  162  A    between atoms: _377  and  _378
REMARK  163  A    between atoms: _377  and  _380
REMARK  164  A    between atoms: _380  and  _381
REMARK  165  A    between atoms: _384  and  _386
REMARK  166  A    between atoms: _386  and  _387
REMARK  167  A    between atoms: _386  and  _389
REMARK  168  A    between atoms: _389  and  _390
REMARK  169  A    between atoms: _395  and  _397
REMARK  170  A    between atoms: _397  and  _398
REMARK  171  A    between atoms: _397  and  _400
REMARK  172  A    between atoms: _400  and  _401
REMARK  173  A    between atoms: _404  and  _406
REMARK  174  A    between atoms: _406  and  _407
REMARK  175  A    between atoms: _406  and  _409
REMARK  176  A    between atoms: _409  and  _410
REMARK  177  A    between atoms: _416  and  _418
REMARK  178  A    between atoms: _418  and  _419
REMARK  179  A    between atoms: _418  and  _421
REMARK  180  A    between atoms: _421  and  _422
REMARK  181  A    between atoms: _422  and  _423
REMARK  182  A    between atoms: _423  and  _424
REMARK  183  A    between atoms: _433  and  _435
REMARK  184  A    between atoms: _435  and  _436
REMARK  185  A    between atoms: _435  and  _438
REMARK  186  A    between atoms: _441  and  _443
REMARK  187  A    between atoms: _443  and  _444
REMARK  188  A    between atoms: _443  and  _446
REMARK  189  A    between atoms: _446  and  _447
REMARK  190  A    between atoms: _449  and  _451
REMARK  191  A    between atoms: _451  and  _452
REMARK  192  A    between atoms: _451  and  _454
REMARK  193  A    between atoms: _454  and  _455
REMARK  194  A    between atoms: _461  and  _463
REMARK  195  A    between atoms: _463  and  _464
REMARK  196  A    between atoms: _463  and  _466
REMARK  197  A    between atoms: _466  and  _467
REMARK  198  A    between atoms: _469  and  _471
REMARK  199  A    between atoms: _471  and  _472
REMARK  200  A    between atoms: _475  and  _476
REMARK  201  A    between atoms: _481  and  _483
REMARK  202  A    between atoms: _483  and  _484
REMARK  203  A    between atoms: _483  and  _486
REMARK  204  A    between atoms: _486  and  _487
REMARK  205  A    between atoms: _493  and  _495
REMARK  206  A    between atoms: _495  and  _496
REMARK  207  A    between atoms: _495  and  _498
REMARK  208  A    between atoms: _498  and  _499
REMARK  209  A    between atoms: _505  and  _507
REMARK  210  A    between atoms: _507  and  _508
REMARK  211  A    between atoms: _507  and  _510
REMARK  212  A    between atoms: _510  and  _511
REMARK  213  A    between atoms: _511  and  _512
REMARK  214  A    between atoms: _512  and  _513
REMARK  215  A    between atoms: _522  and  _524
REMARK  216  A    between atoms: _524  and  _525
REMARK  217  A    between atoms: _527  and  _529
REMARK  218  A    between atoms: _529  and  _530
REMARK  219  A    between atoms: _529  and  _532
REMARK  220  A    between atoms: _532  and  _533
REMARK  221  A    between atoms: _536  and  _538
REMARK  222  A    between atoms: _538  and  _539
REMARK  223  A    between atoms: _541  and  _543
REMARK  224  A    between atoms: _543  and  _544
REMARK  225  A    between atoms: _543  and  _546
REMARK  226  A    between atoms: _546  and  _547
REMARK  227  A    between atoms: _547  and  _548
REMARK  228  A    between atoms: _550  and  _552
REMARK  229  A    between atoms: _552  and  _553
REMARK  230  A    between atoms: _556  and  _558
REMARK  231  A    between atoms: _558  and  _559
REMARK  232  A    between atoms: _558  and  _561
REMARK  233  A    between atoms: _561  and  _562
REMARK  234  A    between atoms: _564  and  _566
REMARK  235  A    between atoms: _566  and  _567
REMARK  236  A    between atoms: _566  and  _569
REMARK  237  A    between atoms: _569  and  _570
REMARK  238  A    between atoms: _573  and  _575
REMARK  239  A    between atoms: _575  and  _576
REMARK  240  A    between atoms: _575  and  _578
REMARK  241  A    between atoms: _578  and  _579
REMARK  242  A    between atoms: _584  and  _586
REMARK  243  A    between atoms: _586  and  _587
REMARK  244  A    between atoms: _586  and  _589
REMARK  245  A    between atoms: _589  and  _590
REMARK  246  A    between atoms: _595  and  _597
REMARK  247  A    between atoms: _597  and  _598
REMARK  248  A    between atoms: _597  and  _600
REMARK  249  A    between atoms: _603  and  _605
REMARK  250  A    between atoms: _605  and  _606
REMARK  251  A    between atoms: _605  and  _608
REMARK  252  A    between atoms: _608  and  _609
REMARK  253  A    between atoms: _614  and  _615
REMARK                            x       y       z     vdW  Elec       q    Type
REMARK                         _______ _______ _______ _____ _____    ______ ____
ROOT
ATOM      1  O   HOH     1      24.395  16.288  11.796  0.00  0.00    +0.000 OA
ENDROOT
TORSDOF 0
REMARK  Name = ../refined-set-2016/4dy6/4dy6_pocket.pdb
REMARK  253 active torsions:
REMARK  status: ('A' for Active; 'I' for Inactive)
REMARK    1  A    between atoms: _1  and  _3
REMARK    2  A    between atoms: _3  and  _4
REMARK    3  A    between atoms: _3  and  _6
REMARK    4  A    between atoms: _6  and  _7
REMARK    5  A    between atoms: _7  and  _8
REMARK    6  A    between atoms: _8  and  _9
REMARK    7  A    between atoms: _9  and  _10
REMARK    8  A    between atoms: _14  and  _16
REMARK    9  A    between atoms: _16  and  _17
REMARK   10  A    between atoms: _19  and  _21
REMARK   11  A    between atoms: _21  and  _22
REMARK   12  A    between atoms: _24  and  _26
REMARK   13  A    between atoms: _26  and  _27
REMARK   14  A    between atoms: _26  and  _29
REMARK   15  A    between atoms: _29  and  _30
REMARK   16  A    between atoms: _33  and  _35
REMARK   17  A    between atoms: _35  and  _36
REMARK   18  A    between atoms: _38  and  _40
REMARK   19  A    between atoms: _40  and  _41
REMARK   20  A    between atoms: _40  and  _43
REMARK   21  A    between atoms: _43  and  _44
REMARK   22  A    between atoms: _47  and  _49
REMARK   23  A    between atoms: _49  and  _50
REMARK   24  A    between atoms: _49  and  _52
REMARK   25  A    between atoms: _52  and  _53
REMARK   26  A    between atoms: _59  and  _61
REMARK   27  A    between atoms: _61  and  _62
REMARK   28  A    between atoms: _61  and  _64
REMARK   29  A    between atoms: _64  and  _65
REMARK   30  A    between atoms: _68  and  _70
REMARK   31  A    between atoms: _70  and  _71
REMARK   32  A    between atoms: _70  and  _73
REMARK   33  A    between atoms: _73  and  _74
REMARK   34  A    between atoms: _76  and  _78
REMARK   35  A    between atoms: _78  and  _79
REMARK   36  A    between atoms: _78  and  _81
REMARK   37  A    between atoms: _81  and  _82
REMARK   38  A    between atoms: _87  and  _89
REMARK   39  A    between atoms: _89  and  _90
REMARK   40  A    between atoms: _89  and  _92
REMARK   41  A    between atoms: _92  and  _93
REMARK   42  A    between atoms: _96  and  _98
REMARK   43  A    between atoms: _98  and  _99
REMARK   44  A    between atoms: _101  and  _103
REMARK   45  A    between atoms: _103  and  _104
REMARK   46  A    between atoms: _103  and  _106
REMARK   47  A    between atoms: _106  and  _107
REMARK   48  A    between atoms: _112  and  _114
REMARK   49  A    between atoms: _114  and  _115
REMARK   50  A    between atoms: _114  and  _117
REMARK   51  A    between atoms: _117  and  _118
REMARK   52  A    between atoms: _121  and  _123
REMARK   53  A    between atoms: _123  and  _124
REMARK   54  A    between atoms: _126  and  _128
REMARK   55  A    between atoms: _128  and  _129
REMARK   56  A    between atoms: _128  and  _131
REMARK   57  A    between atoms: _131  and  _132
REMARK   58  A    between atoms: _138  and  _140
REMARK   59  A    between atoms: _140  and  _141
REMARK   60  A    between atoms: _140  and  _143
REMARK   61  A    between atoms: _143  and  _144
REMARK   62  A    between atoms: _149  and  _150
REMARK   63  A    between atoms: _152  and  _154
REMARK   64  A    between atoms: _154  and  _155
REMARK   65  A    between atoms: _158  and  _160
REMARK   66  A    between atoms: _160  and  _161
REMARK   67  A    between atoms: _160  and  _163
REMARK   68  A    between atoms: _163  and  _164
REMARK   69  A    between atoms: _167  and  _169
REMARK   70  A    between atoms: _169  and  _170
REMARK   71  A    between atoms: _169  and  _172
REMARK   72  A    between atoms: _172  and  _173
REMARK   73  A    between atoms: _178  and  _180
REMARK   74  A    between atoms: _180  and  _181
REMARK   75  A    between atoms: _180  and  _183
REMARK   76  A    between atoms: _183  and  _184
REMARK   77  A    between atoms: _184  and  _185
REMARK   78  A    between atoms: _188  and  _190
REMARK   79  A    between atoms: _190  and  _191
REMARK   80  A    between atoms: _190  and  _193
REMARK   81  A    between atoms: _193  and  _194
REMARK   82  A    between atoms: _196  and  _198
REMARK   83  A    between atoms: _198  and  _199
REMARK   84  A    between atoms: _198  and  _201
REMARK   85  A    between atoms: _201  and  _202
REMARK   86  A    between atoms: _205  and  _207
REMARK   87  A    between atoms: _207  and  _208
REMARK   88  A    between atoms: _207  and  _210
REMARK   89  A    between atoms: _210  and  _211
REMARK   90  A    between atoms: _211  and  _212
REMARK   91  A    between atoms: _212  and  _213
REMARK   92  A    between atoms: _213  and  _214
REMARK   93  A    between atoms: _218  and  _220
REMARK   94  A    between atoms: _220  and  _221
REMARK   95  A    between atoms: _220  and  _223
REMARK   96  A    between atoms: _225  and  _227
REMARK   97  A    between atoms: _227  and  _228
REMARK   98  A    between atoms: _227  and  _230
REMARK   99  A    between atoms: _230  and  _231
REMARK  100  A    between atoms: _233  and  _235
REMARK  101  A    between atoms: _235  and  _236
REMARK  102  A    between atoms: _235  and  _238
REMARK  103  A    between atoms: _238  and  _239
REMARK  104  A    between atoms: _243  and  _244
REMARK  105  A    between atoms: _249  and  _251
REMARK  106  A    between atoms: _251  and  _252
REMARK  107  A    between atoms: _251  and  _254
REMARK  108  A    between atoms: _254  and  _255
REMARK  109  A    between atoms: _257  and  _259
REMARK  110  A    between atoms: _259  and  _260
REMARK  111  A    between atoms: _262  and  _264
REMARK  112  A    between atoms: _264  and  _265
REMARK  113  A    between atoms: _264  and  _267
REMARK  114  A    between atoms: _267  and  _268
REMARK  115  A    between atoms: _271  and  _273
REMARK  116  A    between atoms: _273  and  _274
REMARK  117  A    between atoms: _273  and  _276
REMARK  118  A    between atoms: _276  and  _277
REMARK  119  A    between atoms: _280  and  _282
REMARK  120  A    between atoms: _282  and  _283
REMARK  121  A    between atoms: _286  and  _288
REMARK  122  A    between atoms: _288  and  _289
REMARK  123  A    between atoms: _288  and  _291
REMARK  124  A    between atoms: _291  and  _292
REMARK  125  A    between atoms: _297  and  _298
REMARK  126  A    between atoms: _300  and  _302
REMARK  127  A    between atoms: _302  and  _303
REMARK  128  A    between atoms: _302  and  _305
REMARK  129  A    between atoms: _305  and  _306
REMARK  130  A    between atoms: _311  and  _313
REMARK  131  A    between atoms: _313  and  _314
REMARK  132  A    between atoms: _313  and  _316
REMARK  133  A    between atoms: _316  and  _317
REMARK  134  A    between atoms: _317  and  _318
REMARK  135  A    between atoms: _318  and  _319
REMARK  136  A    between atoms: _319  and  _320
REMARK  137  A    between atoms: _324  and  _326
REMARK  138  A    between atoms: _326  and  _327
REMARK  139  A    between atoms: _326  and  _329
REMARK  140  A    between atoms: _329  and  _330
REMARK  141  A    between atoms: _332  and  _334
REMARK  142  A    between atoms: _334  and  _335
REMARK  143  A    between atoms: _334  and  _337
REMARK  144  A    between atoms: _337  and  _338
REMARK  145  A    between atoms: _341  and  _343
REMARK  146  A    between atoms: _343  and  _344
REMARK  147  A    between atoms: _343  and  _346
REMARK  148  A    between atoms: _346  and  _347
REMARK  149  A    between atoms: _350  and  _352
REMARK  150  A    between atoms: _352  and  _353
REMARK  151  A    between atoms: _352  and  _355
REMARK  152  A    between atoms: _355  and  _356
REMARK  153  A    between atoms: _356  and  _357
REMARK  154  A    between atoms: _359  and  _361
REMARK  155  A    between atoms: _361  and  _362
REMARK  156  A    between atoms: _361  and  _364
REMARK  157  A    between atoms: _364  and  _365
REMARK  158  A    between atoms: _367  and  _369
REMARK  159  A    between atoms: _369  and  _370
REMARK  160  A    between atoms: _369  and  _372
REMARK  161  A    between atoms: _375  and  _377
REMARK  162  A    between atoms: _377  and  _378
REMARK  163  A    between atoms: _377  and  _380
REMARK  164  A    between atoms: _380  and  _381
REMARK  165  A    between atoms: _384  and  _386
REMARK  166  A    between atoms: _386  and  _387
REMARK  167  A    between atoms: _386  and  _389
REMARK  168  A    between atoms: _389  and  _390
REMARK  169  A    between atoms: _395  and  _397
REMARK  170  A    between atoms: _397  and  _398
REMARK  171  A    between atoms: _397  and  _400
REMARK  172  A    between atoms: _400  and  _401
REMARK  173  A    between atoms: _404  and  _406
REMARK  174  A    between atoms: _406  and  _407
REMARK  175  A    between atoms: _406  and  _409
REMARK  176  A    between atoms: _409  and  _410
REMARK  177  A    between atoms: _416  and  _418
REMARK  178  A    between atoms: _418  and  _419
REMARK  179  A    between atoms: _418  and  _421
REMARK  180  A    between atoms: _421  and  _422
REMARK  181  A    between atoms: _422  and  _423
REMARK  182  A    between atoms: _423  and  _424
REMARK  183  A    between atoms: _433  and  _435
REMARK  184  A    between atoms: _435  and  _436
REMARK  185  A    between atoms: _435  and  _438
REMARK  186  A    between atoms: _441  and  _443
REMARK  187  A    between atoms: _443  and  _444
REMARK  188  A    between atoms: _443  and  _446
REMARK  189  A    between atoms: _446  and  _447
REMARK  190  A    between atoms: _449  and  _451
REMARK  191  A    between atoms: _451  and  _452
REMARK  192  A    between atoms: _451  and  _454
REMARK  193  A    between atoms: _454  and  _455
REMARK  194  A    between atoms: _461  and  _463
REMARK  195  A    between atoms: _463  and  _464
REMARK  196  A    between atoms: _463  and  _466
REMARK  197  A    between atoms: _466  and  _467
REMARK  198  A    between atoms: _469  and  _471
REMARK  199  A    between atoms: _471  and  _472
REMARK  200  A    between atoms: _475  and  _476
REMARK  201  A    between atoms: _481  and  _483
REMARK  202  A    between atoms: _483  and  _484
REMARK  203  A    between atoms: _483  and  _486
REMARK  204  A    between atoms: _486  and  _487
REMARK  205  A    between atoms: _493  and  _495
REMARK  206  A    between atoms: _495  and  _496
REMARK  207  A    between atoms: _495  and  _498
REMARK  208  A    between atoms: _498  and  _499
REMARK  209  A    between atoms: _505  and  _507
REMARK  210  A    between atoms: _507  and  _508
REMARK  211  A    between atoms: _507  and  _510
REMARK  212  A    between atoms: _510  and  _511
REMARK  213  A    between atoms: _511  and  _512
REMARK  214  A    between atoms: _512  and  _513
REMARK  215  A    between atoms: _522  and  _524
REMARK  216  A    between atoms: _524  and  _525
REMARK  217  A    between atoms: _527  and  _529
REMARK  218  A    between atoms: _529  and  _530
REMARK  219  A    between atoms: _529  and  _532
REMARK  220  A    between atoms: _532  and  _533
REMARK  221  A    between atoms: _536  and  _538
REMARK  222  A    between atoms: _538  and  _539
REMARK  223  A    between atoms: _541  and  _543
REMARK  224  A    between atoms: _543  and  _544
REMARK  225  A    between atoms: _543  and  _546
REMARK  226  A    between atoms: _546  and  _547
REMARK  227  A    between atoms: _547  and  _548
REMARK  228  A    between atoms: _550  and  _552
REMARK  229  A    between atoms: _552  and  _553
REMARK  230  A    between atoms: _556  and  _558
REMARK  231  A    between atoms: _558  and  _559
REMARK  232  A    between atoms: _558  and  _561
REMARK  233  A    between atoms: _561  and  _562
REMARK  234  A    between atoms: _564  and  _566
REMARK  235  A    between atoms: _566  and  _567
REMARK  236  A    between atoms: _566  and  _569
REMARK  237  A    between atoms: _569  and  _570
REMARK  238  A    between atoms: _573  and  _575
REMARK  239  A    between atoms: _575  and  _576
REMARK  240  A    between atoms: _575  and  _578
REMARK  241  A    between atoms: _578  and  _579
REMARK  242  A    between atoms: _584  and  _586
REMARK  243  A    between atoms: _586  and  _587
REMARK  244  A    between atoms: _586  and  _589
REMARK  245  A    between atoms: _589  and  _590
REMARK  246  A    between atoms: _595  and  _597
REMARK  247  A    between atoms: _597  and  _598
REMARK  248  A    between atoms: _597  and  _600
REMARK  249  A    between atoms: _603  and  _605
REMARK  250  A    between atoms: _605  and  _606
REMARK  251  A    between atoms: _605  and  _608
REMARK  252  A    between atoms: _608  and  _609
REMARK  253  A    between atoms: _614  and  _615
REMARK                            x       y       z     vdW  Elec       q    Type
REMARK                         _______ _______ _______ _____ _____    ______ ____
ROOT
ATOM      1  O   HOH     1      20.361   7.994  10.775  0.00  0.00    +0.000 OA
ENDROOT
TORSDOF 0
REMARK  Name = ../refined-set-2016/4dy6/4dy6_pocket.pdb
REMARK  253 active torsions:
REMARK  status: ('A' for Active; 'I' for Inactive)
REMARK    1  A    between atoms: _1  and  _3
REMARK    2  A    between atoms: _3  and  _4
REMARK    3  A    between atoms: _3  and  _6
REMARK    4  A    between atoms: _6  and  _7
REMARK    5  A    between atoms: _7  and  _8
REMARK    6  A    between atoms: _8  and  _9
REMARK    7  A    between atoms: _9  and  _10
REMARK    8  A    between atoms: _14  and  _16
REMARK    9  A    between atoms: _16  and  _17
REMARK   10  A    between atoms: _19  and  _21
REMARK   11  A    between atoms: _21  and  _22
REMARK   12  A    between atoms: _24  and  _26
REMARK   13  A    between atoms: _26  and  _27
REMARK   14  A    between atoms: _26  and  _29
REMARK   15  A    between atoms: _29  and  _30
REMARK   16  A    between atoms: _33  and  _35
REMARK   17  A    between atoms: _35  and  _36
REMARK   18  A    between atoms: _38  and  _40
REMARK   19  A    between atoms: _40  and  _41
REMARK   20  A    between atoms: _40  and  _43
REMARK   21  A    between atoms: _43  and  _44
REMARK   22  A    between atoms: _47  and  _49
REMARK   23  A    between atoms: _49  and  _50
REMARK   24  A    between atoms: _49  and  _52
REMARK   25  A    between atoms: _52  and  _53
REMARK   26  A    between atoms: _59  and  _61
REMARK   27  A    between atoms: _61  and  _62
REMARK   28  A    between atoms: _61  and  _64
REMARK   29  A    between atoms: _64  and  _65
REMARK   30  A    between atoms: _68  and  _70
REMARK   31  A    between atoms: _70  and  _71
REMARK   32  A    between atoms: _70  and  _73
REMARK   33  A    between atoms: _73  and  _74
REMARK   34  A    between atoms: _76  and  _78
REMARK   35  A    between atoms: _78  and  _79
REMARK   36  A    between atoms: _78  and  _81
REMARK   37  A    between atoms: _81  and  _82
REMARK   38  A    between atoms: _87  and  _89
REMARK   39  A    between atoms: _89  and  _90
REMARK   40  A    between atoms: _89  and  _92
REMARK   41  A    between atoms: _92  and  _93
REMARK   42  A    between atoms: _96  and  _98
REMARK   43  A    between atoms: _98  and  _99
REMARK   44  A    between atoms: _101  and  _103
REMARK   45  A    between atoms: _103  and  _104
REMARK   46  A    between atoms: _103  and  _106
REMARK   47  A    between atoms: _106  and  _107
REMARK   48  A    between atoms: _112  and  _114
REMARK   49  A    between atoms: _114  and  _115
REMARK   50  A    between atoms: _114  and  _117
REMARK   51  A    between atoms: _117  and  _118
REMARK   52  A    between atoms: _121  and  _123
REMARK   53  A    between atoms: _123  and  _124
REMARK   54  A    between atoms: _126  and  _128
REMARK   55  A    between atoms: _128  and  _129
REMARK   56  A    between atoms: _128  and  _131
REMARK   57  A    between atoms: _131  and  _132
REMARK   58  A    between atoms: _138  and  _140
REMARK   59  A    between atoms: _140  and  _141
REMARK   60  A    between atoms: _140  and  _143
REMARK   61  A    between atoms: _143  and  _144
REMARK   62  A    between atoms: _149  and  _150
REMARK   63  A    between atoms: _152  and  _154
REMARK   64  A    between atoms: _154  and  _155
REMARK   65  A    between atoms: _158  and  _160
REMARK   66  A    between atoms: _160  and  _161
REMARK   67  A    between atoms: _160  and  _163
REMARK   68  A    between atoms: _163  and  _164
REMARK   69  A    between atoms: _167  and  _169
REMARK   70  A    between atoms: _169  and  _170
REMARK   71  A    between atoms: _169  and  _172
REMARK   72  A    between atoms: _172  and  _173
REMARK   73  A    between atoms: _178  and  _180
REMARK   74  A    between atoms: _180  and  _181
REMARK   75  A    between atoms: _180  and  _183
REMARK   76  A    between atoms: _183  and  _184
REMARK   77  A    between atoms: _184  and  _185
REMARK   78  A    between atoms: _188  and  _190
REMARK   79  A    between atoms: _190  and  _191
REMARK   80  A    between atoms: _190  and  _193
REMARK   81  A    between atoms: _193  and  _194
REMARK   82  A    between atoms: _196  and  _198
REMARK   83  A    between atoms: _198  and  _199
REMARK   84  A    between atoms: _198  and  _201
REMARK   85  A    between atoms: _201  and  _202
REMARK   86  A    between atoms: _205  and  _207
REMARK   87  A    between atoms: _207  and  _208
REMARK   88  A    between atoms: _207  and  _210
REMARK   89  A    between atoms: _210  and  _211
REMARK   90  A    between atoms: _211  and  _212
REMARK   91  A    between atoms: _212  and  _213
REMARK   92  A    between atoms: _213  and  _214
REMARK   93  A    between atoms: _218  and  _220
REMARK   94  A    between atoms: _220  and  _221
REMARK   95  A    between atoms: _220  and  _223
REMARK   96  A    between atoms: _225  and  _227
REMARK   97  A    between atoms: _227  and  _228
REMARK   98  A    between atoms: _227  and  _230
REMARK   99  A    between atoms: _230  and  _231
REMARK  100  A    between atoms: _233  and  _235
REMARK  101  A    between atoms: _235  and  _236
REMARK  102  A    between atoms: _235  and  _238
REMARK  103  A    between atoms: _238  and  _239
REMARK  104  A    between atoms: _243  and  _244
REMARK  105  A    between atoms: _249  and  _251
REMARK  106  A    between atoms: _251  and  _252
REMARK  107  A    between atoms: _251  and  _254
REMARK  108  A    between atoms: _254  and  _255
REMARK  109  A    between atoms: _257  and  _259
REMARK  110  A    between atoms: _259  and  _260
REMARK  111  A    between atoms: _262  and  _264
REMARK  112  A    between atoms: _264  and  _265
REMARK  113  A    between atoms: _264  and  _267
REMARK  114  A    between atoms: _267  and  _268
REMARK  115  A    between atoms: _271  and  _273
REMARK  116  A    between atoms: _273  and  _274
REMARK  117  A    between atoms: _273  and  _276
REMARK  118  A    between atoms: _276  and  _277
REMARK  119  A    between atoms: _280  and  _282
REMARK  120  A    between atoms: _282  and  _283
REMARK  121  A    between atoms: _286  and  _288
REMARK  122  A    between atoms: _288  and  _289
REMARK  123  A    between atoms: _288  and  _291
REMARK  124  A    between atoms: _291  and  _292
REMARK  125  A    between atoms: _297  and  _298
REMARK  126  A    between atoms: _300  and  _302
REMARK  127  A    between atoms: _302  and  _303
REMARK  128  A    between atoms: _302  and  _305
REMARK  129  A    between atoms: _305  and  _306
REMARK  130  A    between atoms: _311  and  _313
REMARK  131  A    between atoms: _313  and  _314
REMARK  132  A    between atoms: _313  and  _316
REMARK  133  A    between atoms: _316  and  _317
REMARK  134  A    between atoms: _317  and  _318
REMARK  135  A    between atoms: _318  and  _319
REMARK  136  A    between atoms: _319  and  _320
REMARK  137  A    between atoms: _324  and  _326
REMARK  138  A    between atoms: _326  and  _327
REMARK  139  A    between atoms: _326  and  _329
REMARK  140  A    between atoms: _329  and  _330
REMARK  141  A    between atoms: _332  and  _334
REMARK  142  A    between atoms: _334  and  _335
REMARK  143  A    between atoms: _334  and  _337
REMARK  144  A    between atoms: _337  and  _338
REMARK  145  A    between atoms: _341  and  _343
REMARK  146  A    between atoms: _343  and  _344
REMARK  147  A    between atoms: _343  and  _346
REMARK  148  A    between atoms: _346  and  _347
REMARK  149  A    between atoms: _350  and  _352
REMARK  150  A    between atoms: _352  and  _353
REMARK  151  A    between atoms: _352  and  _355
REMARK  152  A    between atoms: _355  and  _356
REMARK  153  A    between atoms: _356  and  _357
REMARK  154  A    between atoms: _359  and  _361
REMARK  155  A    between atoms: _361  and  _362
REMARK  156  A    between atoms: _361  and  _364
REMARK  157  A    between atoms: _364  and  _365
REMARK  158  A    between atoms: _367  and  _369
REMARK  159  A    between atoms: _369  and  _370
REMARK  160  A    between atoms: _369  and  _372
REMARK  161  A    between atoms: _375  and  _377
REMARK  162  A    between atoms: _377  and  _378
REMARK  163  A    between atoms: _377  and  _380
REMARK  164  A    between atoms: _380  and  _381
REMARK  165  A    between atoms: _384  and  _386
REMARK  166  A    between atoms: _386  and  _387
REMARK  167  A    between atoms: _386  and  _389
REMARK  168  A    between atoms: _389  and  _390
REMARK  169  A    between atoms: _395  and  _397
REMARK  170  A    between atoms: _397  and  _398
REMARK  171  A    between atoms: _397  and  _400
REMARK  172  A    between atoms: _400  and  _401
REMARK  173  A    between atoms: _404  and  _406
REMARK  174  A    between atoms: _406  and  _407
REMARK  175  A    between atoms: _406  and  _409
REMARK  176  A    between atoms: _409  and  _410
REMARK  177  A    between atoms: _416  and  _418
REMARK  178  A    between atoms: _418  and  _419
REMARK  179  A    between atoms: _418  and  _421
REMARK  180  A    between atoms: _421  and  _422
REMARK  181  A    between atoms: _422  and  _423
REMARK  182  A    between atoms: _423  and  _424
REMARK  183  A    between atoms: _433  and  _435
REMARK  184  A    between atoms: _435  and  _436
REMARK  185  A    between atoms: _435  and  _438
REMARK  186  A    between atoms: _441  and  _443
REMARK  187  A    between atoms: _443  and  _444
REMARK  188  A    between atoms: _443  and  _446
REMARK  189  A    between atoms: _446  and  _447
REMARK  190  A    between atoms: _449  and  _451
REMARK  191  A    between atoms: _451  and  _452
REMARK  192  A    between atoms: _451  and  _454
REMARK  193  A    between atoms: _454  and  _455
REMARK  194  A    between atoms: _461  and  _463
REMARK  195  A    between atoms: _463  and  _464
REMARK  196  A    between atoms: _463  and  _466
REMARK  197  A    between atoms: _466  and  _467
REMARK  198  A    between atoms: _469  and  _471
REMARK  199  A    between atoms: _471  and  _472
REMARK  200  A    between atoms: _475  and  _476
REMARK  201  A    between atoms: _481  and  _483
REMARK  202  A    between atoms: _483  and  _484
REMARK  203  A    between atoms: _483  and  _486
REMARK  204  A    between atoms: _486  and  _487
REMARK  205  A    between atoms: _493  and  _495
REMARK  206  A    between atoms: _495  and  _496
REMARK  207  A    between atoms: _495  and  _498
REMARK  208  A    between atoms: _498  and  _499
REMARK  209  A    between atoms: _505  and  _507
REMARK  210  A    between atoms: _507  and  _508
REMARK  211  A    between atoms: _507  and  _510
REMARK  212  A    between atoms: _510  and  _511
REMARK  213  A    between atoms: _511  and  _512
REMARK  214  A    between atoms: _512  and  _513
REMARK  215  A    between atoms: _522  and  _524
REMARK  216  A    between atoms: _524  and  _525
REMARK  217  A    between atoms: _527  and  _529
REMARK  218  A    between atoms: _529  and  _530
REMARK  219  A    between atoms: _529  and  _532
REMARK  220  A    between atoms: _532  and  _533
REMARK  221  A    between atoms: _536  and  _538
REMARK  222  A    between atoms: _538  and  _539
REMARK  223  A    between atoms: _541  and  _543
REMARK  224  A    between atoms: _543  and  _544
REMARK  225  A    between atoms: _543  and  _546
REMARK  226  A    between atoms: _546  and  _547
REMARK  227  A    between atoms: _547  and  _548
REMARK  228  A    between atoms: _550  and  _552
REMARK  229  A    between atoms: _552  and  _553
REMARK  230  A    between atoms: _556  and  _558
REMARK  231  A    between atoms: _558  and  _559
REMARK  232  A    between atoms: _558  and  _561
REMARK  233  A    between atoms: _561  and  _562
REMARK  234  A    between atoms: _564  and  _566
REMARK  235  A    between atoms: _566  and  _567
REMARK  236  A    between atoms: _566  and  _569
REMARK  237  A    between atoms: _569  and  _570
REMARK  238  A    between atoms: _573  and  _575
REMARK  239  A    between atoms: _575  and  _576
REMARK  240  A    between atoms: _575  and  _578
REMARK  241  A    between atoms: _578  and  _579
REMARK  242  A    between atoms: _584  and  _586
REMARK  243  A    between atoms: _586  and  _587
REMARK  244  A    between atoms: _586  and  _589
REMARK  245  A    between atoms: _589  and  _590
REMARK  246  A    between atoms: _595  and  _597
REMARK  247  A    between atoms: _597  and  _598
REMARK  248  A    between atoms: _597  and  _600
REMARK  249  A    between atoms: _603  and  _605
REMARK  250  A    between atoms: _605  and  _606
REMARK  251  A    between atoms: _605  and  _608
REMARK  252  A    between atoms: _608  and  _609
REMARK  253  A    between atoms: _614  and  _615
REMARK                            x       y       z     vdW  Elec       q    Type
REMARK                         _______ _______ _______ _____ _____    ______ ____
ROOT
ATOM      1  O   HOH     1      13.003  11.881  18.842  0.00  0.00    +0.000 OA
ENDROOT
TORSDOF 0
REMARK  Name = ../refined-set-2016/4dy6/4dy6_pocket.pdb
REMARK  253 active torsions:
REMARK  status: ('A' for Active; 'I' for Inactive)
REMARK    1  A    between atoms: _1  and  _3
REMARK    2  A    between atoms: _3  and  _4
REMARK    3  A    between atoms: _3  and  _6
REMARK    4  A    between atoms: _6  and  _7
REMARK    5  A    between atoms: _7  and  _8
REMARK    6  A    between atoms: _8  and  _9
REMARK    7  A    between atoms: _9  and  _10
REMARK    8  A    between atoms: _14  and  _16
REMARK    9  A    between atoms: _16  and  _17
REMARK   10  A    between atoms: _19  and  _21
REMARK   11  A    between atoms: _21  and  _22
REMARK   12  A    between atoms: _24  and  _26
REMARK   13  A    between atoms: _26  and  _27
REMARK   14  A    between atoms: _26  and  _29
REMARK   15  A    between atoms: _29  and  _30
REMARK   16  A    between atoms: _33  and  _35
REMARK   17  A    between atoms: _35  and  _36
REMARK   18  A    between atoms: _38  and  _40
REMARK   19  A    between atoms: _40  and  _41
REMARK   20  A    between atoms: _40  and  _43
REMARK   21  A    between atoms: _43  and  _44
REMARK   22  A    between atoms: _47  and  _49
REMARK   23  A    between atoms: _49  and  _50
REMARK   24  A    between atoms: _49  and  _52
REMARK   25  A    between atoms: _52  and  _53
REMARK   26  A    between atoms: _59  and  _61
REMARK   27  A    between atoms: _61  and  _62
REMARK   28  A    between atoms: _61  and  _64
REMARK   29  A    between atoms: _64  and  _65
REMARK   30  A    between atoms: _68  and  _70
REMARK   31  A    between atoms: _70  and  _71
REMARK   32  A    between atoms: _70  and  _73
REMARK   33  A    between atoms: _73  and  _74
REMARK   34  A    between atoms: _76  and  _78
REMARK   35  A    between atoms: _78  and  _79
REMARK   36  A    between atoms: _78  and  _81
REMARK   37  A    between atoms: _81  and  _82
REMARK   38  A    between atoms: _87  and  _89
REMARK   39  A    between atoms: _89  and  _90
REMARK   40  A    between atoms: _89  and  _92
REMARK   41  A    between atoms: _92  and  _93
REMARK   42  A    between atoms: _96  and  _98
REMARK   43  A    between atoms: _98  and  _99
REMARK   44  A    between atoms: _101  and  _103
REMARK   45  A    between atoms: _103  and  _104
REMARK   46  A    between atoms: _103  and  _106
REMARK   47  A    between atoms: _106  and  _107
REMARK   48  A    between atoms: _112  and  _114
REMARK   49  A    between atoms: _114  and  _115
REMARK   50  A    between atoms: _114  and  _117
REMARK   51  A    between atoms: _117  and  _118
REMARK   52  A    between atoms: _121  and  _123
REMARK   53  A    between atoms: _123  and  _124
REMARK   54  A    between atoms: _126  and  _128
REMARK   55  A    between atoms: _128  and  _129
REMARK   56  A    between atoms: _128  and  _131
REMARK   57  A    between atoms: _131  and  _132
REMARK   58  A    between atoms: _138  and  _140
REMARK   59  A    between atoms: _140  and  _141
REMARK   60  A    between atoms: _140  and  _143
REMARK   61  A    between atoms: _143  and  _144
REMARK   62  A    between atoms: _149  and  _150
REMARK   63  A    between atoms: _152  and  _154
REMARK   64  A    between atoms: _154  and  _155
REMARK   65  A    between atoms: _158  and  _160
REMARK   66  A    between atoms: _160  and  _161
REMARK   67  A    between atoms: _160  and  _163
REMARK   68  A    between atoms: _163  and  _164
REMARK   69  A    between atoms: _167  and  _169
REMARK   70  A    between atoms: _169  and  _170
REMARK   71  A    between atoms: _169  and  _172
REMARK   72  A    between atoms: _172  and  _173
REMARK   73  A    between atoms: _178  and  _180
REMARK   74  A    between atoms: _180  and  _181
REMARK   75  A    between atoms: _180  and  _183
REMARK   76  A    between atoms: _183  and  _184
REMARK   77  A    between atoms: _184  and  _185
REMARK   78  A    between atoms: _188  and  _190
REMARK   79  A    between atoms: _190  and  _191
REMARK   80  A    between atoms: _190  and  _193
REMARK   81  A    between atoms: _193  and  _194
REMARK   82  A    between atoms: _196  and  _198
REMARK   83  A    between atoms: _198  and  _199
REMARK   84  A    between atoms: _198  and  _201
REMARK   85  A    between atoms: _201  and  _202
REMARK   86  A    between atoms: _205  and  _207
REMARK   87  A    between atoms: _207  and  _208
REMARK   88  A    between atoms: _207  and  _210
REMARK   89  A    between atoms: _210  and  _211
REMARK   90  A    between atoms: _211  and  _212
REMARK   91  A    between atoms: _212  and  _213
REMARK   92  A    between atoms: _213  and  _214
REMARK   93  A    between atoms: _218  and  _220
REMARK   94  A    between atoms: _220  and  _221
REMARK   95  A    between atoms: _220  and  _223
REMARK   96  A    between atoms: _225  and  _227
REMARK   97  A    between atoms: _227  and  _228
REMARK   98  A    between atoms: _227  and  _230
REMARK   99  A    between atoms: _230  and  _231
REMARK  100  A    between atoms: _233  and  _235
REMARK  101  A    between atoms: _235  and  _236
REMARK  102  A    between atoms: _235  and  _238
REMARK  103  A    between atoms: _238  and  _239
REMARK  104  A    between atoms: _243  and  _244
REMARK  105  A    between atoms: _249  and  _251
REMARK  106  A    between atoms: _251  and  _252
REMARK  107  A    between atoms: _251  and  _254
REMARK  108  A    between atoms: _254  and  _255
REMARK  109  A    between atoms: _257  and  _259
REMARK  110  A    between atoms: _259  and  _260
REMARK  111  A    between atoms: _262  and  _264
REMARK  112  A    between atoms: _264  and  _265
REMARK  113  A    between atoms: _264  and  _267
REMARK  114  A    between atoms: _267  and  _268
REMARK  115  A    between atoms: _271  and  _273
REMARK  116  A    between atoms: _273  and  _274
REMARK  117  A    between atoms: _273  and  _276
REMARK  118  A    between atoms: _276  and  _277
REMARK  119  A    between atoms: _280  and  _282
REMARK  120  A    between atoms: _282  and  _283
REMARK  121  A    between atoms: _286  and  _288
REMARK  122  A    between atoms: _288  and  _289
REMARK  123  A    between atoms: _288  and  _291
REMARK  124  A    between atoms: _291  and  _292
REMARK  125  A    between atoms: _297  and  _298
REMARK  126  A    between atoms: _300  and  _302
REMARK  127  A    between atoms: _302  and  _303
REMARK  128  A    between atoms: _302  and  _305
REMARK  129  A    between atoms: _305  and  _306
REMARK  130  A    between atoms: _311  and  _313
REMARK  131  A    between atoms: _313  and  _314
REMARK  132  A    between atoms: _313  and  _316
REMARK  133  A    between atoms: _316  and  _317
REMARK  134  A    between atoms: _317  and  _318
REMARK  135  A    between atoms: _318  and  _319
REMARK  136  A    between atoms: _319  and  _320
REMARK  137  A    between atoms: _324  and  _326
REMARK  138  A    between atoms: _326  and  _327
REMARK  139  A    between atoms: _326  and  _329
REMARK  140  A    between atoms: _329  and  _330
REMARK  141  A    between atoms: _332  and  _334
REMARK  142  A    between atoms: _334  and  _335
REMARK  143  A    between atoms: _334  and  _337
REMARK  144  A    between atoms: _337  and  _338
REMARK  145  A    between atoms: _341  and  _343
REMARK  146  A    between atoms: _343  and  _344
REMARK  147  A    between atoms: _343  and  _346
REMARK  148  A    between atoms: _346  and  _347
REMARK  149  A    between atoms: _350  and  _352
REMARK  150  A    between atoms: _352  and  _353
REMARK  151  A    between atoms: _352  and  _355
REMARK  152  A    between atoms: _355  and  _356
REMARK  153  A    between atoms: _356  and  _357
REMARK  154  A    between atoms: _359  and  _361
REMARK  155  A    between atoms: _361  and  _362
REMARK  156  A    between atoms: _361  and  _364
REMARK  157  A    between atoms: _364  and  _365
REMARK  158  A    between atoms: _367  and  _369
REMARK  159  A    between atoms: _369  and  _370
REMARK  160  A    between atoms: _369  and  _372
REMARK  161  A    between atoms: _375  and  _377
REMARK  162  A    between atoms: _377  and  _378
REMARK  163  A    between atoms: _377  and  _380
REMARK  164  A    between atoms: _380  and  _381
REMARK  165  A    between atoms: _384  and  _386
REMARK  166  A    between atoms: _386  and  _387
REMARK  167  A    between atoms: _386  and  _389
REMARK  168  A    between atoms: _389  and  _390
REMARK  169  A    between atoms: _395  and  _397
REMARK  170  A    between atoms: _397  and  _398
REMARK  171  A    between atoms: _397  and  _400
REMARK  172  A    between atoms: _400  and  _401
REMARK  173  A    between atoms: _404  and  _406
REMARK  174  A    between atoms: _406  and  _407
REMARK  175  A    between atoms: _406  and  _409
REMARK  176  A    between atoms: _409  and  _410
REMARK  177  A    between atoms: _416  and  _418
REMARK  178  A    between atoms: _418  and  _419
REMARK  179  A    between atoms: _418  and  _421
REMARK  180  A    between atoms: _421  and  _422
REMARK  181  A    between atoms: _422  and  _423
REMARK  182  A    between atoms: _423  and  _424
REMARK  183  A    between atoms: _433  and  _435
REMARK  184  A    between atoms: _435  and  _436
REMARK  185  A    between atoms: _435  and  _438
REMARK  186  A    between atoms: _441  and  _443
REMARK  187  A    between atoms: _443  and  _444
REMARK  188  A    between atoms: _443  and  _446
REMARK  189  A    between atoms: _446  and  _447
REMARK  190  A    between atoms: _449  and  _451
REMARK  191  A    between atoms: _451  and  _452
REMARK  192  A    between atoms: _451  and  _454
REMARK  193  A    between atoms: _454  and  _455
REMARK  194  A    between atoms: _461  and  _463
REMARK  195  A    between atoms: _463  and  _464
REMARK  196  A    between atoms: _463  and  _466
REMARK  197  A    between atoms: _466  and  _467
REMARK  198  A    between atoms: _469  and  _471
REMARK  199  A    between atoms: _471  and  _472
REMARK  200  A    between atoms: _475  and  _476
REMARK  201  A    between atoms: _481  and  _483
REMARK  202  A    between atoms: _483  and  _484
REMARK  203  A    between atoms: _483  and  _486
REMARK  204  A    between atoms: _486  and  _487
REMARK  205  A    between atoms: _493  and  _495
REMARK  206  A    between atoms: _495  and  _496
REMARK  207  A    between atoms: _495  and  _498
REMARK  208  A    between atoms: _498  and  _499
REMARK  209  A    between atoms: _505  and  _507
REMARK  210  A    between atoms: _507  and  _508
REMARK  211  A    between atoms: _507  and  _510
REMARK  212  A    between atoms: _510  and  _511
REMARK  213  A    between atoms: _511  and  _512
REMARK  214  A    between atoms: _512  and  _513
REMARK  215  A    between atoms: _522  and  _524
REMARK  216  A    between atoms: _524  and  _525
REMARK  217  A    between atoms: _527  and  _529
REMARK  218  A    between atoms: _529  and  _530
REMARK  219  A    between atoms: _529  and  _532
REMARK  220  A    between atoms: _532  and  _533
REMARK  221  A    between atoms: _536  and  _538
REMARK  222  A    between atoms: _538  and  _539
REMARK  223  A    between atoms: _541  and  _543
REMARK  224  A    between atoms: _543  and  _544
REMARK  225  A    between atoms: _543  and  _546
REMARK  226  A    between atoms: _546  and  _547
REMARK  227  A    between atoms: _547  and  _548
REMARK  228  A    between atoms: _550  and  _552
REMARK  229  A    between atoms: _552  and  _553
REMARK  230  A    between atoms: _556  and  _558
REMARK  231  A    between atoms: _558  and  _559
REMARK  232  A    between atoms: _558  and  _561
REMARK  233  A    between atoms: _561  and  _562
REMARK  234  A    between atoms: _564  and  _566
REMARK  235  A    between atoms: _566  and  _567
REMARK  236  A    between atoms: _566  and  _569
REMARK  237  A    between atoms: _569  and  _570
REMARK  238  A    between atoms: _573  and  _575
REMARK  239  A    between atoms: _575  and  _576
REMARK  240  A    between atoms: _575  and  _578
REMARK  241  A    between atoms: _578  and  _579
REMARK  242  A    between atoms: _584  and  _586
REMARK  243  A    between atoms: _586  and  _587
REMARK  244  A    between atoms: _586  and  _589
REMARK  245  A    between atoms: _589  and  _590
REMARK  246  A    between atoms: _595  and  _597
REMARK  247  A    between atoms: _597  and  _598
REMARK  248  A    between atoms: _597  and  _600
REMARK  249  A    between atoms: _603  and  _605
REMARK  250  A    between atoms: _605  and  _606
REMARK  251  A    between atoms: _605  and  _608
REMARK  252  A    between atoms: _608  and  _609
REMARK  253  A    between atoms: _614  and  _615
REMARK                            x       y       z     vdW  Elec       q    Type
REMARK                         _______ _______ _______ _____ _____    ______ ____
ROOT
ATOM      1  O   HOH     1      14.234   9.005  16.439  0.00  0.00    +0.000 OA
ENDROOT
TORSDOF 0
REMARK  Name = ../refined-set-2016/4dy6/4dy6_pocket.pdb
REMARK  253 active torsions:
REMARK  status: ('A' for Active; 'I' for Inactive)
REMARK    1  A    between atoms: _1  and  _3
REMARK    2  A    between atoms: _3  and  _4
REMARK    3  A    between atoms: _3  and  _6
REMARK    4  A    between atoms: _6  and  _7
REMARK    5  A    between atoms: _7  and  _8
REMARK    6  A    between atoms: _8  and  _9
REMARK    7  A    between atoms: _9  and  _10
REMARK    8  A    between atoms: _14  and  _16
REMARK    9  A    between atoms: _16  and  _17
REMARK   10  A    between atoms: _19  and  _21
REMARK   11  A    between atoms: _21  and  _22
REMARK   12  A    between atoms: _24  and  _26
REMARK   13  A    between atoms: _26  and  _27
REMARK   14  A    between atoms: _26  and  _29
REMARK   15  A    between atoms: _29  and  _30
REMARK   16  A    between atoms: _33  and  _35
REMARK   17  A    between atoms: _35  and  _36
REMARK   18  A    between atoms: _38  and  _40
REMARK   19  A    between atoms: _40  and  _41
REMARK   20  A    between atoms: _40  and  _43
REMARK   21  A    between atoms: _43  and  _44
REMARK   22  A    between atoms: _47  and  _49
REMARK   23  A    between atoms: _49  and  _50
REMARK   24  A    between atoms: _49  and  _52
REMARK   25  A    between atoms: _52  and  _53
REMARK   26  A    between atoms: _59  and  _61
REMARK   27  A    between atoms: _61  and  _62
REMARK   28  A    between atoms: _61  and  _64
REMARK   29  A    between atoms: _64  and  _65
REMARK   30  A    between atoms: _68  and  _70
REMARK   31  A    between atoms: _70  and  _71
REMARK   32  A    between atoms: _70  and  _73
REMARK   33  A    between atoms: _73  and  _74
REMARK   34  A    between atoms: _76  and  _78
REMARK   35  A    between atoms: _78  and  _79
REMARK   36  A    between atoms: _78  and  _81
REMARK   37  A    between atoms: _81  and  _82
REMARK   38  A    between atoms: _87  and  _89
REMARK   39  A    between atoms: _89  and  _90
REMARK   40  A    between atoms: _89  and  _92
REMARK   41  A    between atoms: _92  and  _93
REMARK   42  A    between atoms: _96  and  _98
REMARK   43  A    between atoms: _98  and  _99
REMARK   44  A    between atoms: _101  and  _103
REMARK   45  A    between atoms: _103  and  _104
REMARK   46  A    between atoms: _103  and  _106
REMARK   47  A    between atoms: _106  and  _107
REMARK   48  A    between atoms: _112  and  _114
REMARK   49  A    between atoms: _114  and  _115
REMARK   50  A    between atoms: _114  and  _117
REMARK   51  A    between atoms: _117  and  _118
REMARK   52  A    between atoms: _121  and  _123
REMARK   53  A    between atoms: _123  and  _124
REMARK   54  A    between atoms: _126  and  _128
REMARK   55  A    between atoms: _128  and  _129
REMARK   56  A    between atoms: _128  and  _131
REMARK   57  A    between atoms: _131  and  _132
REMARK   58  A    between atoms: _138  and  _140
REMARK   59  A    between atoms: _140  and  _141
REMARK   60  A    between atoms: _140  and  _143
REMARK   61  A    between atoms: _143  and  _144
REMARK   62  A    between atoms: _149  and  _150
REMARK   63  A    between atoms: _152  and  _154
REMARK   64  A    between atoms: _154  and  _155
REMARK   65  A    between atoms: _158  and  _160
REMARK   66  A    between atoms: _160  and  _161
REMARK   67  A    between atoms: _160  and  _163
REMARK   68  A    between atoms: _163  and  _164
REMARK   69  A    between atoms: _167  and  _169
REMARK   70  A    between atoms: _169  and  _170
REMARK   71  A    between atoms: _169  and  _172
REMARK   72  A    between atoms: _172  and  _173
REMARK   73  A    between atoms: _178  and  _180
REMARK   74  A    between atoms: _180  and  _181
REMARK   75  A    between atoms: _180  and  _183
REMARK   76  A    between atoms: _183  and  _184
REMARK   77  A    between atoms: _184  and  _185
REMARK   78  A    between atoms: _188  and  _190
REMARK   79  A    between atoms: _190  and  _191
REMARK   80  A    between atoms: _190  and  _193
REMARK   81  A    between atoms: _193  and  _194
REMARK   82  A    between atoms: _196  and  _198
REMARK   83  A    between atoms: _198  and  _199
REMARK   84  A    between atoms: _198  and  _201
REMARK   85  A    between atoms: _201  and  _202
REMARK   86  A    between atoms: _205  and  _207
REMARK   87  A    between atoms: _207  and  _208
REMARK   88  A    between atoms: _207  and  _210
REMARK   89  A    between atoms: _210  and  _211
REMARK   90  A    between atoms: _211  and  _212
REMARK   91  A    between atoms: _212  and  _213
REMARK   92  A    between atoms: _213  and  _214
REMARK   93  A    between atoms: _218  and  _220
REMARK   94  A    between atoms: _220  and  _221
REMARK   95  A    between atoms: _220  and  _223
REMARK   96  A    between atoms: _225  and  _227
REMARK   97  A    between atoms: _227  and  _228
REMARK   98  A    between atoms: _227  and  _230
REMARK   99  A    between atoms: _230  and  _231
REMARK  100  A    between atoms: _233  and  _235
REMARK  101  A    between atoms: _235  and  _236
REMARK  102  A    between atoms: _235  and  _238
REMARK  103  A    between atoms: _238  and  _239
REMARK  104  A    between atoms: _243  and  _244
REMARK  105  A    between atoms: _249  and  _251
REMARK  106  A    between atoms: _251  and  _252
REMARK  107  A    between atoms: _251  and  _254
REMARK  108  A    between atoms: _254  and  _255
REMARK  109  A    between atoms: _257  and  _259
REMARK  110  A    between atoms: _259  and  _260
REMARK  111  A    between atoms: _262  and  _264
REMARK  112  A    between atoms: _264  and  _265
REMARK  113  A    between atoms: _264  and  _267
REMARK  114  A    between atoms: _267  and  _268
REMARK  115  A    between atoms: _271  and  _273
REMARK  116  A    between atoms: _273  and  _274
REMARK  117  A    between atoms: _273  and  _276
REMARK  118  A    between atoms: _276  and  _277
REMARK  119  A    between atoms: _280  and  _282
REMARK  120  A    between atoms: _282  and  _283
REMARK  121  A    between atoms: _286  and  _288
REMARK  122  A    between atoms: _288  and  _289
REMARK  123  A    between atoms: _288  and  _291
REMARK  124  A    between atoms: _291  and  _292
REMARK  125  A    between atoms: _297  and  _298
REMARK  126  A    between atoms: _300  and  _302
REMARK  127  A    between atoms: _302  and  _303
REMARK  128  A    between atoms: _302  and  _305
REMARK  129  A    between atoms: _305  and  _306
REMARK  130  A    between atoms: _311  and  _313
REMARK  131  A    between atoms: _313  and  _314
REMARK  132  A    between atoms: _313  and  _316
REMARK  133  A    between atoms: _316  and  _317
REMARK  134  A    between atoms: _317  and  _318
REMARK  135  A    between atoms: _318  and  _319
REMARK  136  A    between atoms: _319  and  _320
REMARK  137  A    between atoms: _324  and  _326
REMARK  138  A    between atoms: _326  and  _327
REMARK  139  A    between atoms: _326  and  _329
REMARK  140  A    between atoms: _329  and  _330
REMARK  141  A    between atoms: _332  and  _334
REMARK  142  A    between atoms: _334  and  _335
REMARK  143  A    between atoms: _334  and  _337
REMARK  144  A    between atoms: _337  and  _338
REMARK  145  A    between atoms: _341  and  _343
REMARK  146  A    between atoms: _343  and  _344
REMARK  147  A    between atoms: _343  and  _346
REMARK  148  A    between atoms: _346  and  _347
REMARK  149  A    between atoms: _350  and  _352
REMARK  150  A    between atoms: _352  and  _353
REMARK  151  A    between atoms: _352  and  _355
REMARK  152  A    between atoms: _355  and  _356
REMARK  153  A    between atoms: _356  and  _357
REMARK  154  A    between atoms: _359  and  _361
REMARK  155  A    between atoms: _361  and  _362
REMARK  156  A    between atoms: _361  and  _364
REMARK  157  A    between atoms: _364  and  _365
REMARK  158  A    between atoms: _367  and  _369
REMARK  159  A    between atoms: _369  and  _370
REMARK  160  A    between atoms: _369  and  _372
REMARK  161  A    between atoms: _375  and  _377
REMARK  162  A    between atoms: _377  and  _378
REMARK  163  A    between atoms: _377  and  _380
REMARK  164  A    between atoms: _380  and  _381
REMARK  165  A    between atoms: _384  and  _386
REMARK  166  A    between atoms: _386  and  _387
REMARK  167  A    between atoms: _386  and  _389
REMARK  168  A    between atoms: _389  and  _390
REMARK  169  A    between atoms: _395  and  _397
REMARK  170  A    between atoms: _397  and  _398
REMARK  171  A    between atoms: _397  and  _400
REMARK  172  A    between atoms: _400  and  _401
REMARK  173  A    between atoms: _404  and  _406
REMARK  174  A    between atoms: _406  and  _407
REMARK  175  A    between atoms: _406  and  _409
REMARK  176  A    between atoms: _409  and  _410
REMARK  177  A    between atoms: _416  and  _418
REMARK  178  A    between atoms: _418  and  _419
REMARK  179  A    between atoms: _418  and  _421
REMARK  180  A    between atoms: _421  and  _422
REMARK  181  A    between atoms: _422  and  _423
REMARK  182  A    between atoms: _423  and  _424
REMARK  183  A    between atoms: _433  and  _435
REMARK  184  A    between atoms: _435  and  _436
REMARK  185  A    between atoms: _435  and  _438
REMARK  186  A    between atoms: _441  and  _443
REMARK  187  A    between atoms: _443  and  _444
REMARK  188  A    between atoms: _443  and  _446
REMARK  189  A    between atoms: _446  and  _447
REMARK  190  A    between atoms: _449  and  _451
REMARK  191  A    between atoms: _451  and  _452
REMARK  192  A    between atoms: _451  and  _454
REMARK  193  A    between atoms: _454  and  _455
REMARK  194  A    between atoms: _461  and  _463
REMARK  195  A    between atoms: _463  and  _464
REMARK  196  A    between atoms: _463  and  _466
REMARK  197  A    between atoms: _466  and  _467
REMARK  198  A    between atoms: _469  and  _471
REMARK  199  A    between atoms: _471  and  _472
REMARK  200  A    between atoms: _475  and  _476
REMARK  201  A    between atoms: _481  and  _483
REMARK  202  A    between atoms: _483  and  _484
REMARK  203  A    between atoms: _483  and  _486
REMARK  204  A    between atoms: _486  and  _487
REMARK  205  A    between atoms: _493  and  _495
REMARK  206  A    between atoms: _495  and  _496
REMARK  207  A    between atoms: _495  and  _498
REMARK  208  A    between atoms: _498  and  _499
REMARK  209  A    between atoms: _505  and  _507
REMARK  210  A    between atoms: _507  and  _508
REMARK  211  A    between atoms: _507  and  _510
REMARK  212  A    between atoms: _510  and  _511
REMARK  213  A    between atoms: _511  and  _512
REMARK  214  A    between atoms: _512  and  _513
REMARK  215  A    between atoms: _522  and  _524
REMARK  216  A    between atoms: _524  and  _525
REMARK  217  A    between atoms: _527  and  _529
REMARK  218  A    between atoms: _529  and  _530
REMARK  219  A    between atoms: _529  and  _532
REMARK  220  A    between atoms: _532  and  _533
REMARK  221  A    between atoms: _536  and  _538
REMARK  222  A    between atoms: _538  and  _539
REMARK  223  A    between atoms: _541  and  _543
REMARK  224  A    between atoms: _543  and  _544
REMARK  225  A    between atoms: _543  and  _546
REMARK  226  A    between atoms: _546  and  _547
REMARK  227  A    between atoms: _547  and  _548
REMARK  228  A    between atoms: _550  and  _552
REMARK  229  A    between atoms: _552  and  _553
REMARK  230  A    between atoms: _556  and  _558
REMARK  231  A    between atoms: _558  and  _559
REMARK  232  A    between atoms: _558  and  _561
REMARK  233  A    between atoms: _561  and  _562
REMARK  234  A    between atoms: _564  and  _566
REMARK  235  A    between atoms: _566  and  _567
REMARK  236  A    between atoms: _566  and  _569
REMARK  237  A    between atoms: _569  and  _570
REMARK  238  A    between atoms: _573  and  _575
REMARK  239  A    between atoms: _575  and  _576
REMARK  240  A    between atoms: _575  and  _578
REMARK  241  A    between atoms: _578  and  _579
REMARK  242  A    between atoms: _584  and  _586
REMARK  243  A    between atoms: _586  and  _587
REMARK  244  A    between atoms: _586  and  _589
REMARK  245  A    between atoms: _589  and  _590
REMARK  246  A    between atoms: _595  and  _597
REMARK  247  A    between atoms: _597  and  _598
REMARK  248  A    between atoms: _597  and  _600
REMARK  249  A    between atoms: _603  and  _605
REMARK  250  A    between atoms: _605  and  _606
REMARK  251  A    between atoms: _605  and  _608
REMARK  252  A    between atoms: _608  and  _609
REMARK  253  A    between atoms: _614  and  _615
REMARK                            x       y       z     vdW  Elec       q    Type
REMARK                         _______ _______ _______ _____ _____    ______ ____
ROOT
ATOM      1  O   HOH     1      10.262  10.259  15.272  0.00  0.00    +0.000 OA
ENDROOT
TORSDOF 0
REMARK  Name = ../refined-set-2016/4dy6/4dy6_pocket.pdb
REMARK  253 active torsions:
REMARK  status: ('A' for Active; 'I' for Inactive)
REMARK    1  A    between atoms: _1  and  _3
REMARK    2  A    between atoms: _3  and  _4
REMARK    3  A    between atoms: _3  and  _6
REMARK    4  A    between atoms: _6  and  _7
REMARK    5  A    between atoms: _7  and  _8
REMARK    6  A    between atoms: _8  and  _9
REMARK    7  A    between atoms: _9  and  _10
REMARK    8  A    between atoms: _14  and  _16
REMARK    9  A    between atoms: _16  and  _17
REMARK   10  A    between atoms: _19  and  _21
REMARK   11  A    between atoms: _21  and  _22
REMARK   12  A    between atoms: _24  and  _26
REMARK   13  A    between atoms: _26  and  _27
REMARK   14  A    between atoms: _26  and  _29
REMARK   15  A    between atoms: _29  and  _30
REMARK   16  A    between atoms: _33  and  _35
REMARK   17  A    between atoms: _35  and  _36
REMARK   18  A    between atoms: _38  and  _40
REMARK   19  A    between atoms: _40  and  _41
REMARK   20  A    between atoms: _40  and  _43
REMARK   21  A    between atoms: _43  and  _44
REMARK   22  A    between atoms: _47  and  _49
REMARK   23  A    between atoms: _49  and  _50
REMARK   24  A    between atoms: _49  and  _52
REMARK   25  A    between atoms: _52  and  _53
REMARK   26  A    between atoms: _59  and  _61
REMARK   27  A    between atoms: _61  and  _62
REMARK   28  A    between atoms: _61  and  _64
REMARK   29  A    between atoms: _64  and  _65
REMARK   30  A    between atoms: _68  and  _70
REMARK   31  A    between atoms: _70  and  _71
REMARK   32  A    between atoms: _70  and  _73
REMARK   33  A    between atoms: _73  and  _74
REMARK   34  A    between atoms: _76  and  _78
REMARK   35  A    between atoms: _78  and  _79
REMARK   36  A    between atoms: _78  and  _81
REMARK   37  A    between atoms: _81  and  _82
REMARK   38  A    between atoms: _87  and  _89
REMARK   39  A    between atoms: _89  and  _90
REMARK   40  A    between atoms: _89  and  _92
REMARK   41  A    between atoms: _92  and  _93
REMARK   42  A    between atoms: _96  and  _98
REMARK   43  A    between atoms: _98  and  _99
REMARK   44  A    between atoms: _101  and  _103
REMARK   45  A    between atoms: _103  and  _104
REMARK   46  A    between atoms: _103  and  _106
REMARK   47  A    between atoms: _106  and  _107
REMARK   48  A    between atoms: _112  and  _114
REMARK   49  A    between atoms: _114  and  _115
REMARK   50  A    between atoms: _114  and  _117
REMARK   51  A    between atoms: _117  and  _118
REMARK   52  A    between atoms: _121  and  _123
REMARK   53  A    between atoms: _123  and  _124
REMARK   54  A    between atoms: _126  and  _128
REMARK   55  A    between atoms: _128  and  _129
REMARK   56  A    between atoms: _128  and  _131
REMARK   57  A    between atoms: _131  and  _132
REMARK   58  A    between atoms: _138  and  _140
REMARK   59  A    between atoms: _140  and  _141
REMARK   60  A    between atoms: _140  and  _143
REMARK   61  A    between atoms: _143  and  _144
REMARK   62  A    between atoms: _149  and  _150
REMARK   63  A    between atoms: _152  and  _154
REMARK   64  A    between atoms: _154  and  _155
REMARK   65  A    between atoms: _158  and  _160
REMARK   66  A    between atoms: _160  and  _161
REMARK   67  A    between atoms: _160  and  _163
REMARK   68  A    between atoms: _163  and  _164
REMARK   69  A    between atoms: _167  and  _169
REMARK   70  A    between atoms: _169  and  _170
REMARK   71  A    between atoms: _169  and  _172
REMARK   72  A    between atoms: _172  and  _173
REMARK   73  A    between atoms: _178  and  _180
REMARK   74  A    between atoms: _180  and  _181
REMARK   75  A    between atoms: _180  and  _183
REMARK   76  A    between atoms: _183  and  _184
REMARK   77  A    between atoms: _184  and  _185
REMARK   78  A    between atoms: _188  and  _190
REMARK   79  A    between atoms: _190  and  _191
REMARK   80  A    between atoms: _190  and  _193
REMARK   81  A    between atoms: _193  and  _194
REMARK   82  A    between atoms: _196  and  _198
REMARK   83  A    between atoms: _198  and  _199
REMARK   84  A    between atoms: _198  and  _201
REMARK   85  A    between atoms: _201  and  _202
REMARK   86  A    between atoms: _205  and  _207
REMARK   87  A    between atoms: _207  and  _208
REMARK   88  A    between atoms: _207  and  _210
REMARK   89  A    between atoms: _210  and  _211
REMARK   90  A    between atoms: _211  and  _212
REMARK   91  A    between atoms: _212  and  _213
REMARK   92  A    between atoms: _213  and  _214
REMARK   93  A    between atoms: _218  and  _220
REMARK   94  A    between atoms: _220  and  _221
REMARK   95  A    between atoms: _220  and  _223
REMARK   96  A    between atoms: _225  and  _227
REMARK   97  A    between atoms: _227  and  _228
REMARK   98  A    between atoms: _227  and  _230
REMARK   99  A    between atoms: _230  and  _231
REMARK  100  A    between atoms: _233  and  _235
REMARK  101  A    between atoms: _235  and  _236
REMARK  102  A    between atoms: _235  and  _238
REMARK  103  A    between atoms: _238  and  _239
REMARK  104  A    between atoms: _243  and  _244
REMARK  105  A    between atoms: _249  and  _251
REMARK  106  A    between atoms: _251  and  _252
REMARK  107  A    between atoms: _251  and  _254
REMARK  108  A    between atoms: _254  and  _255
REMARK  109  A    between atoms: _257  and  _259
REMARK  110  A    between atoms: _259  and  _260
REMARK  111  A    between atoms: _262  and  _264
REMARK  112  A    between atoms: _264  and  _265
REMARK  113  A    between atoms: _264  and  _267
REMARK  114  A    between atoms: _267  and  _268
REMARK  115  A    between atoms: _271  and  _273
REMARK  116  A    between atoms: _273  and  _274
REMARK  117  A    between atoms: _273  and  _276
REMARK  118  A    between atoms: _276  and  _277
REMARK  119  A    between atoms: _280  and  _282
REMARK  120  A    between atoms: _282  and  _283
REMARK  121  A    between atoms: _286  and  _288
REMARK  122  A    between atoms: _288  and  _289
REMARK  123  A    between atoms: _288  and  _291
REMARK  124  A    between atoms: _291  and  _292
REMARK  125  A    between atoms: _297  and  _298
REMARK  126  A    between atoms: _300  and  _302
REMARK  127  A    between atoms: _302  and  _303
REMARK  128  A    between atoms: _302  and  _305
REMARK  129  A    between atoms: _305  and  _306
REMARK  130  A    between atoms: _311  and  _313
REMARK  131  A    between atoms: _313  and  _314
REMARK  132  A    between atoms: _313  and  _316
REMARK  133  A    between atoms: _316  and  _317
REMARK  134  A    between atoms: _317  and  _318
REMARK  135  A    between atoms: _318  and  _319
REMARK  136  A    between atoms: _319  and  _320
REMARK  137  A    between atoms: _324  and  _326
REMARK  138  A    between atoms: _326  and  _327
REMARK  139  A    between atoms: _326  and  _329
REMARK  140  A    between atoms: _329  and  _330
REMARK  141  A    between atoms: _332  and  _334
REMARK  142  A    between atoms: _334  and  _335
REMARK  143  A    between atoms: _334  and  _337
REMARK  144  A    between atoms: _337  and  _338
REMARK  145  A    between atoms: _341  and  _343
REMARK  146  A    between atoms: _343  and  _344
REMARK  147  A    between atoms: _343  and  _346
REMARK  148  A    between atoms: _346  and  _347
REMARK  149  A    between atoms: _350  and  _352
REMARK  150  A    between atoms: _352  and  _353
REMARK  151  A    between atoms: _352  and  _355
REMARK  152  A    between atoms: _355  and  _356
REMARK  153  A    between atoms: _356  and  _357
REMARK  154  A    between atoms: _359  and  _361
REMARK  155  A    between atoms: _361  and  _362
REMARK  156  A    between atoms: _361  and  _364
REMARK  157  A    between atoms: _364  and  _365
REMARK  158  A    between atoms: _367  and  _369
REMARK  159  A    between atoms: _369  and  _370
REMARK  160  A    between atoms: _369  and  _372
REMARK  161  A    between atoms: _375  and  _377
REMARK  162  A    between atoms: _377  and  _378
REMARK  163  A    between atoms: _377  and  _380
REMARK  164  A    between atoms: _380  and  _381
REMARK  165  A    between atoms: _384  and  _386
REMARK  166  A    between atoms: _386  and  _387
REMARK  167  A    between atoms: _386  and  _389
REMARK  168  A    between atoms: _389  and  _390
REMARK  169  A    between atoms: _395  and  _397
REMARK  170  A    between atoms: _397  and  _398
REMARK  171  A    between atoms: _397  and  _400
REMARK  172  A    between atoms: _400  and  _401
REMARK  173  A    between atoms: _404  and  _406
REMARK  174  A    between atoms: _406  and  _407
REMARK  175  A    between atoms: _406  and  _409
REMARK  176  A    between atoms: _409  and  _410
REMARK  177  A    between atoms: _416  and  _418
REMARK  178  A    between atoms: _418  and  _419
REMARK  179  A    between atoms: _418  and  _421
REMARK  180  A    between atoms: _421  and  _422
REMARK  181  A    between atoms: _422  and  _423
REMARK  182  A    between atoms: _423  and  _424
REMARK  183  A    between atoms: _433  and  _435
REMARK  184  A    between atoms: _435  and  _436
REMARK  185  A    between atoms: _435  and  _438
REMARK  186  A    between atoms: _441  and  _443
REMARK  187  A    between atoms: _443  and  _444
REMARK  188  A    between atoms: _443  and  _446
REMARK  189  A    between atoms: _446  and  _447
REMARK  190  A    between atoms: _449  and  _451
REMARK  191  A    between atoms: _451  and  _452
REMARK  192  A    between atoms: _451  and  _454
REMARK  193  A    between atoms: _454  and  _455
REMARK  194  A    between atoms: _461  and  _463
REMARK  195  A    between atoms: _463  and  _464
REMARK  196  A    between atoms: _463  and  _466
REMARK  197  A    between atoms: _466  and  _467
REMARK  198  A    between atoms: _469  and  _471
REMARK  199  A    between atoms: _471  and  _472
REMARK  200  A    between atoms: _475  and  _476
REMARK  201  A    between atoms: _481  and  _483
REMARK  202  A    between atoms: _483  and  _484
REMARK  203  A    between atoms: _483  and  _486
REMARK  204  A    between atoms: _486  and  _487
REMARK  205  A    between atoms: _493  and  _495
REMARK  206  A    between atoms: _495  and  _496
REMARK  207  A    between atoms: _495  and  _498
REMARK  208  A    between atoms: _498  and  _499
REMARK  209  A    between atoms: _505  and  _507
REMARK  210  A    between atoms: _507  and  _508
REMARK  211  A    between atoms: _507  and  _510
REMARK  212  A    between atoms: _510  and  _511
REMARK  213  A    between atoms: _511  and  _512
REMARK  214  A    between atoms: _512  and  _513
REMARK  215  A    between atoms: _522  and  _524
REMARK  216  A    between atoms: _524  and  _525
REMARK  217  A    between atoms: _527  and  _529
REMARK  218  A    between atoms: _529  and  _530
REMARK  219  A    between atoms: _529  and  _532
REMARK  220  A    between atoms: _532  and  _533
REMARK  221  A    between atoms: _536  and  _538
REMARK  222  A    between atoms: _538  and  _539
REMARK  223  A    between atoms: _541  and  _543
REMARK  224  A    between atoms: _543  and  _544
REMARK  225  A    between atoms: _543  and  _546
REMARK  226  A    between atoms: _546  and  _547
REMARK  227  A    between atoms: _547  and  _548
REMARK  228  A    between atoms: _550  and  _552
REMARK  229  A    between atoms: _552  and  _553
REMARK  230  A    between atoms: _556  and  _558
REMARK  231  A    between atoms: _558  and  _559
REMARK  232  A    between atoms: _558  and  _561
REMARK  233  A    between atoms: _561  and  _562
REMARK  234  A    between atoms: _564  and  _566
REMARK  235  A    between atoms: _566  and  _567
REMARK  236  A    between atoms: _566  and  _569
REMARK  237  A    between atoms: _569  and  _570
REMARK  238  A    between atoms: _573  and  _575
REMARK  239  A    between atoms: _575  and  _576
REMARK  240  A    between atoms: _575  and  _578
REMARK  241  A    between atoms: _578  and  _579
REMARK  242  A    between atoms: _584  and  _586
REMARK  243  A    between atoms: _586  and  _587
REMARK  244  A    between atoms: _586  and  _589
REMARK  245  A    between atoms: _589  and  _590
REMARK  246  A    between atoms: _595  and  _597
REMARK  247  A    between atoms: _597  and  _598
REMARK  248  A    between atoms: _597  and  _600
REMARK  249  A    between atoms: _603  and  _605
REMARK  250  A    between atoms: _605  and  _606
REMARK  251  A    between atoms: _605  and  _608
REMARK  252  A    between atoms: _608  and  _609
REMARK  253  A    between atoms: _614  and  _615
REMARK                            x       y       z     vdW  Elec       q    Type
REMARK                         _______ _______ _______ _____ _____    ______ ____
ROOT
ATOM      1  O   HOH     1      12.311   7.436   9.582  0.00  0.00    +0.000 OA
ENDROOT
TORSDOF 0
REMARK  Name = ../refined-set-2016/4dy6/4dy6_pocket.pdb
REMARK  253 active torsions:
REMARK  status: ('A' for Active; 'I' for Inactive)
REMARK    1  A    between atoms: _1  and  _3
REMARK    2  A    between atoms: _3  and  _4
REMARK    3  A    between atoms: _3  and  _6
REMARK    4  A    between atoms: _6  and  _7
REMARK    5  A    between atoms: _7  and  _8
REMARK    6  A    between atoms: _8  and  _9
REMARK    7  A    between atoms: _9  and  _10
REMARK    8  A    between atoms: _14  and  _16
REMARK    9  A    between atoms: _16  and  _17
REMARK   10  A    between atoms: _19  and  _21
REMARK   11  A    between atoms: _21  and  _22
REMARK   12  A    between atoms: _24  and  _26
REMARK   13  A    between atoms: _26  and  _27
REMARK   14  A    between atoms: _26  and  _29
REMARK   15  A    between atoms: _29  and  _30
REMARK   16  A    between atoms: _33  and  _35
REMARK   17  A    between atoms: _35  and  _36
REMARK   18  A    between atoms: _38  and  _40
REMARK   19  A    between atoms: _40  and  _41
REMARK   20  A    between atoms: _40  and  _43
REMARK   21  A    between atoms: _43  and  _44
REMARK   22  A    between atoms: _47  and  _49
REMARK   23  A    between atoms: _49  and  _50
REMARK   24  A    between atoms: _49  and  _52
REMARK   25  A    between atoms: _52  and  _53
REMARK   26  A    between atoms: _59  and  _61
REMARK   27  A    between atoms: _61  and  _62
REMARK   28  A    between atoms: _61  and  _64
REMARK   29  A    between atoms: _64  and  _65
REMARK   30  A    between atoms: _68  and  _70
REMARK   31  A    between atoms: _70  and  _71
REMARK   32  A    between atoms: _70  and  _73
REMARK   33  A    between atoms: _73  and  _74
REMARK   34  A    between atoms: _76  and  _78
REMARK   35  A    between atoms: _78  and  _79
REMARK   36  A    between atoms: _78  and  _81
REMARK   37  A    between atoms: _81  and  _82
REMARK   38  A    between atoms: _87  and  _89
REMARK   39  A    between atoms: _89  and  _90
REMARK   40  A    between atoms: _89  and  _92
REMARK   41  A    between atoms: _92  and  _93
REMARK   42  A    between atoms: _96  and  _98
REMARK   43  A    between atoms: _98  and  _99
REMARK   44  A    between atoms: _101  and  _103
REMARK   45  A    between atoms: _103  and  _104
REMARK   46  A    between atoms: _103  and  _106
REMARK   47  A    between atoms: _106  and  _107
REMARK   48  A    between atoms: _112  and  _114
REMARK   49  A    between atoms: _114  and  _115
REMARK   50  A    between atoms: _114  and  _117
REMARK   51  A    between atoms: _117  and  _118
REMARK   52  A    between atoms: _121  and  _123
REMARK   53  A    between atoms: _123  and  _124
REMARK   54  A    between atoms: _126  and  _128
REMARK   55  A    between atoms: _128  and  _129
REMARK   56  A    between atoms: _128  and  _131
REMARK   57  A    between atoms: _131  and  _132
REMARK   58  A    between atoms: _138  and  _140
REMARK   59  A    between atoms: _140  and  _141
REMARK   60  A    between atoms: _140  and  _143
REMARK   61  A    between atoms: _143  and  _144
REMARK   62  A    between atoms: _149  and  _150
REMARK   63  A    between atoms: _152  and  _154
REMARK   64  A    between atoms: _154  and  _155
REMARK   65  A    between atoms: _158  and  _160
REMARK   66  A    between atoms: _160  and  _161
REMARK   67  A    between atoms: _160  and  _163
REMARK   68  A    between atoms: _163  and  _164
REMARK   69  A    between atoms: _167  and  _169
REMARK   70  A    between atoms: _169  and  _170
REMARK   71  A    between atoms: _169  and  _172
REMARK   72  A    between atoms: _172  and  _173
REMARK   73  A    between atoms: _178  and  _180
REMARK   74  A    between atoms: _180  and  _181
REMARK   75  A    between atoms: _180  and  _183
REMARK   76  A    between atoms: _183  and  _184
REMARK   77  A    between atoms: _184  and  _185
REMARK   78  A    between atoms: _188  and  _190
REMARK   79  A    between atoms: _190  and  _191
REMARK   80  A    between atoms: _190  and  _193
REMARK   81  A    between atoms: _193  and  _194
REMARK   82  A    between atoms: _196  and  _198
REMARK   83  A    between atoms: _198  and  _199
REMARK   84  A    between atoms: _198  and  _201
REMARK   85  A    between atoms: _201  and  _202
REMARK   86  A    between atoms: _205  and  _207
REMARK   87  A    between atoms: _207  and  _208
REMARK   88  A    between atoms: _207  and  _210
REMARK   89  A    between atoms: _210  and  _211
REMARK   90  A    between atoms: _211  and  _212
REMARK   91  A    between atoms: _212  and  _213
REMARK   92  A    between atoms: _213  and  _214
REMARK   93  A    between atoms: _218  and  _220
REMARK   94  A    between atoms: _220  and  _221
REMARK   95  A    between atoms: _220  and  _223
REMARK   96  A    between atoms: _225  and  _227
REMARK   97  A    between atoms: _227  and  _228
REMARK   98  A    between atoms: _227  and  _230
REMARK   99  A    between atoms: _230  and  _231
REMARK  100  A    between atoms: _233  and  _235
REMARK  101  A    between atoms: _235  and  _236
REMARK  102  A    between atoms: _235  and  _238
REMARK  103  A    between atoms: _238  and  _239
REMARK  104  A    between atoms: _243  and  _244
REMARK  105  A    between atoms: _249  and  _251
REMARK  106  A    between atoms: _251  and  _252
REMARK  107  A    between atoms: _251  and  _254
REMARK  108  A    between atoms: _254  and  _255
REMARK  109  A    between atoms: _257  and  _259
REMARK  110  A    between atoms: _259  and  _260
REMARK  111  A    between atoms: _262  and  _264
REMARK  112  A    between atoms: _264  and  _265
REMARK  113  A    between atoms: _264  and  _267
REMARK  114  A    between atoms: _267  and  _268
REMARK  115  A    between atoms: _271  and  _273
REMARK  116  A    between atoms: _273  and  _274
REMARK  117  A    between atoms: _273  and  _276
REMARK  118  A    between atoms: _276  and  _277
REMARK  119  A    between atoms: _280  and  _282
REMARK  120  A    between atoms: _282  and  _283
REMARK  121  A    between atoms: _286  and  _288
REMARK  122  A    between atoms: _288  and  _289
REMARK  123  A    between atoms: _288  and  _291
REMARK  124  A    between atoms: _291  and  _292
REMARK  125  A    between atoms: _297  and  _298
REMARK  126  A    between atoms: _300  and  _302
REMARK  127  A    between atoms: _302  and  _303
REMARK  128  A    between atoms: _302  and  _305
REMARK  129  A    between atoms: _305  and  _306
REMARK  130  A    between atoms: _311  and  _313
REMARK  131  A    between atoms: _313  and  _314
REMARK  132  A    between atoms: _313  and  _316
REMARK  133  A    between atoms: _316  and  _317
REMARK  134  A    between atoms: _317  and  _318
REMARK  135  A    between atoms: _318  and  _319
REMARK  136  A    between atoms: _319  and  _320
REMARK  137  A    between atoms: _324  and  _326
REMARK  138  A    between atoms: _326  and  _327
REMARK  139  A    between atoms: _326  and  _329
REMARK  140  A    between atoms: _329  and  _330
REMARK  141  A    between atoms: _332  and  _334
REMARK  142  A    between atoms: _334  and  _335
REMARK  143  A    between atoms: _334  and  _337
REMARK  144  A    between atoms: _337  and  _338
REMARK  145  A    between atoms: _341  and  _343
REMARK  146  A    between atoms: _343  and  _344
REMARK  147  A    between atoms: _343  and  _346
REMARK  148  A    between atoms: _346  and  _347
REMARK  149  A    between atoms: _350  and  _352
REMARK  150  A    between atoms: _352  and  _353
REMARK  151  A    between atoms: _352  and  _355
REMARK  152  A    between atoms: _355  and  _356
REMARK  153  A    between atoms: _356  and  _357
REMARK  154  A    between atoms: _359  and  _361
REMARK  155  A    between atoms: _361  and  _362
REMARK  156  A    between atoms: _361  and  _364
REMARK  157  A    between atoms: _364  and  _365
REMARK  158  A    between atoms: _367  and  _369
REMARK  159  A    between atoms: _369  and  _370
REMARK  160  A    between atoms: _369  and  _372
REMARK  161  A    between atoms: _375  and  _377
REMARK  162  A    between atoms: _377  and  _378
REMARK  163  A    between atoms: _377  and  _380
REMARK  164  A    between atoms: _380  and  _381
REMARK  165  A    between atoms: _384  and  _386
REMARK  166  A    between atoms: _386  and  _387
REMARK  167  A    between atoms: _386  and  _389
REMARK  168  A    between atoms: _389  and  _390
REMARK  169  A    between atoms: _395  and  _397
REMARK  170  A    between atoms: _397  and  _398
REMARK  171  A    between atoms: _397  and  _400
REMARK  172  A    between atoms: _400  and  _401
REMARK  173  A    between atoms: _404  and  _406
REMARK  174  A    between atoms: _406  and  _407
REMARK  175  A    between atoms: _406  and  _409
REMARK  176  A    between atoms: _409  and  _410
REMARK  177  A    between atoms: _416  and  _418
REMARK  178  A    between atoms: _418  and  _419
REMARK  179  A    between atoms: _418  and  _421
REMARK  180  A    between atoms: _421  and  _422
REMARK  181  A    between atoms: _422  and  _423
REMARK  182  A    between atoms: _423  and  _424
REMARK  183  A    between atoms: _433  and  _435
REMARK  184  A    between atoms: _435  and  _436
REMARK  185  A    between atoms: _435  and  _438
REMARK  186  A    between atoms: _441  and  _443
REMARK  187  A    between atoms: _443  and  _444
REMARK  188  A    between atoms: _443  and  _446
REMARK  189  A    between atoms: _446  and  _447
REMARK  190  A    between atoms: _449  and  _451
REMARK  191  A    between atoms: _451  and  _452
REMARK  192  A    between atoms: _451  and  _454
REMARK  193  A    between atoms: _454  and  _455
REMARK  194  A    between atoms: _461  and  _463
REMARK  195  A    between atoms: _463  and  _464
REMARK  196  A    between atoms: _463  and  _466
REMARK  197  A    between atoms: _466  and  _467
REMARK  198  A    between atoms: _469  and  _471
REMARK  199  A    between atoms: _471  and  _472
REMARK  200  A    between atoms: _475  and  _476
REMARK  201  A    between atoms: _481  and  _483
REMARK  202  A    between atoms: _483  and  _484
REMARK  203  A    between atoms: _483  and  _486
REMARK  204  A    between atoms: _486  and  _487
REMARK  205  A    between atoms: _493  and  _495
REMARK  206  A    between atoms: _495  and  _496
REMARK  207  A    between atoms: _495  and  _498
REMARK  208  A    between atoms: _498  and  _499
REMARK  209  A    between atoms: _505  and  _507
REMARK  210  A    between atoms: _507  and  _508
REMARK  211  A    between atoms: _507  and  _510
REMARK  212  A    between atoms: _510  and  _511
REMARK  213  A    between atoms: _511  and  _512
REMARK  214  A    between atoms: _512  and  _513
REMARK  215  A    between atoms: _522  and  _524
REMARK  216  A    between atoms: _524  and  _525
REMARK  217  A    between atoms: _527  and  _529
REMARK  218  A    between atoms: _529  and  _530
REMARK  219  A    between atoms: _529  and  _532
REMARK  220  A    between atoms: _532  and  _533
REMARK  221  A    between atoms: _536  and  _538
REMARK  222  A    between atoms: _538  and  _539
REMARK  223  A    between atoms: _541  and  _543
REMARK  224  A    between atoms: _543  and  _544
REMARK  225  A    between atoms: _543  and  _546
REMARK  226  A    between atoms: _546  and  _547
REMARK  227  A    between atoms: _547  and  _548
REMARK  228  A    between atoms: _550  and  _552
REMARK  229  A    between atoms: _552  and  _553
REMARK  230  A    between atoms: _556  and  _558
REMARK  231  A    between atoms: _558  and  _559
REMARK  232  A    between atoms: _558  and  _561
REMARK  233  A    between atoms: _561  and  _562
REMARK  234  A    between atoms: _564  and  _566
REMARK  235  A    between atoms: _566  and  _567
REMARK  236  A    between atoms: _566  and  _569
REMARK  237  A    between atoms: _569  and  _570
REMARK  238  A    between atoms: _573  and  _575
REMARK  239  A    between atoms: _575  and  _576
REMARK  240  A    between atoms: _575  and  _578
REMARK  241  A    between atoms: _578  and  _579
REMARK  242  A    between atoms: _584  and  _586
REMARK  243  A    between atoms: _586  and  _587
REMARK  244  A    between atoms: _586  and  _589
REMARK  245  A    between atoms: _589  and  _590
REMARK  246  A    between atoms: _595  and  _597
REMARK  247  A    between atoms: _597  and  _598
REMARK  248  A    between atoms: _597  and  _600
REMARK  249  A    between atoms: _603  and  _605
REMARK  250  A    between atoms: _605  and  _606
REMARK  251  A    between atoms: _605  and  _608
REMARK  252  A    between atoms: _608  and  _609
REMARK  253  A    between atoms: _614  and  _615
REMARK                            x       y       z     vdW  Elec       q    Type
REMARK                         _______ _______ _______ _____ _____    ______ ____
ROOT
ATOM      1  O   HOH     1      13.546   7.960   5.164  0.00  0.00    +0.000 OA
ENDROOT
TORSDOF 0
REMARK  Name = ../refined-set-2016/4dy6/4dy6_pocket.pdb
REMARK  253 active torsions:
REMARK  status: ('A' for Active; 'I' for Inactive)
REMARK    1  A    between atoms: _1  and  _3
REMARK    2  A    between atoms: _3  and  _4
REMARK    3  A    between atoms: _3  and  _6
REMARK    4  A    between atoms: _6  and  _7
REMARK    5  A    between atoms: _7  and  _8
REMARK    6  A    between atoms: _8  and  _9
REMARK    7  A    between atoms: _9  and  _10
REMARK    8  A    between atoms: _14  and  _16
REMARK    9  A    between atoms: _16  and  _17
REMARK   10  A    between atoms: _19  and  _21
REMARK   11  A    between atoms: _21  and  _22
REMARK   12  A    between atoms: _24  and  _26
REMARK   13  A    between atoms: _26  and  _27
REMARK   14  A    between atoms: _26  and  _29
REMARK   15  A    between atoms: _29  and  _30
REMARK   16  A    between atoms: _33  and  _35
REMARK   17  A    between atoms: _35  and  _36
REMARK   18  A    between atoms: _38  and  _40
REMARK   19  A    between atoms: _40  and  _41
REMARK   20  A    between atoms: _40  and  _43
REMARK   21  A    between atoms: _43  and  _44
REMARK   22  A    between atoms: _47  and  _49
REMARK   23  A    between atoms: _49  and  _50
REMARK   24  A    between atoms: _49  and  _52
REMARK   25  A    between atoms: _52  and  _53
REMARK   26  A    between atoms: _59  and  _61
REMARK   27  A    between atoms: _61  and  _62
REMARK   28  A    between atoms: _61  and  _64
REMARK   29  A    between atoms: _64  and  _65
REMARK   30  A    between atoms: _68  and  _70
REMARK   31  A    between atoms: _70  and  _71
REMARK   32  A    between atoms: _70  and  _73
REMARK   33  A    between atoms: _73  and  _74
REMARK   34  A    between atoms: _76  and  _78
REMARK   35  A    between atoms: _78  and  _79
REMARK   36  A    between atoms: _78  and  _81
REMARK   37  A    between atoms: _81  and  _82
REMARK   38  A    between atoms: _87  and  _89
REMARK   39  A    between atoms: _89  and  _90
REMARK   40  A    between atoms: _89  and  _92
REMARK   41  A    between atoms: _92  and  _93
REMARK   42  A    between atoms: _96  and  _98
REMARK   43  A    between atoms: _98  and  _99
REMARK   44  A    between atoms: _101  and  _103
REMARK   45  A    between atoms: _103  and  _104
REMARK   46  A    between atoms: _103  and  _106
REMARK   47  A    between atoms: _106  and  _107
REMARK   48  A    between atoms: _112  and  _114
REMARK   49  A    between atoms: _114  and  _115
REMARK   50  A    between atoms: _114  and  _117
REMARK   51  A    between atoms: _117  and  _118
REMARK   52  A    between atoms: _121  and  _123
REMARK   53  A    between atoms: _123  and  _124
REMARK   54  A    between atoms: _126  and  _128
REMARK   55  A    between atoms: _128  and  _129
REMARK   56  A    between atoms: _128  and  _131
REMARK   57  A    between atoms: _131  and  _132
REMARK   58  A    between atoms: _138  and  _140
REMARK   59  A    between atoms: _140  and  _141
REMARK   60  A    between atoms: _140  and  _143
REMARK   61  A    between atoms: _143  and  _144
REMARK   62  A    between atoms: _149  and  _150
REMARK   63  A    between atoms: _152  and  _154
REMARK   64  A    between atoms: _154  and  _155
REMARK   65  A    between atoms: _158  and  _160
REMARK   66  A    between atoms: _160  and  _161
REMARK   67  A    between atoms: _160  and  _163
REMARK   68  A    between atoms: _163  and  _164
REMARK   69  A    between atoms: _167  and  _169
REMARK   70  A    between atoms: _169  and  _170
REMARK   71  A    between atoms: _169  and  _172
REMARK   72  A    between atoms: _172  and  _173
REMARK   73  A    between atoms: _178  and  _180
REMARK   74  A    between atoms: _180  and  _181
REMARK   75  A    between atoms: _180  and  _183
REMARK   76  A    between atoms: _183  and  _184
REMARK   77  A    between atoms: _184  and  _185
REMARK   78  A    between atoms: _188  and  _190
REMARK   79  A    between atoms: _190  and  _191
REMARK   80  A    between atoms: _190  and  _193
REMARK   81  A    between atoms: _193  and  _194
REMARK   82  A    between atoms: _196  and  _198
REMARK   83  A    between atoms: _198  and  _199
REMARK   84  A    between atoms: _198  and  _201
REMARK   85  A    between atoms: _201  and  _202
REMARK   86  A    between atoms: _205  and  _207
REMARK   87  A    between atoms: _207  and  _208
REMARK   88  A    between atoms: _207  and  _210
REMARK   89  A    between atoms: _210  and  _211
REMARK   90  A    between atoms: _211  and  _212
REMARK   91  A    between atoms: _212  and  _213
REMARK   92  A    between atoms: _213  and  _214
REMARK   93  A    between atoms: _218  and  _220
REMARK   94  A    between atoms: _220  and  _221
REMARK   95  A    between atoms: _220  and  _223
REMARK   96  A    between atoms: _225  and  _227
REMARK   97  A    between atoms: _227  and  _228
REMARK   98  A    between atoms: _227  and  _230
REMARK   99  A    between atoms: _230  and  _231
REMARK  100  A    between atoms: _233  and  _235
REMARK  101  A    between atoms: _235  and  _236
REMARK  102  A    between atoms: _235  and  _238
REMARK  103  A    between atoms: _238  and  _239
REMARK  104  A    between atoms: _243  and  _244
REMARK  105  A    between atoms: _249  and  _251
REMARK  106  A    between atoms: _251  and  _252
REMARK  107  A    between atoms: _251  and  _254
REMARK  108  A    between atoms: _254  and  _255
REMARK  109  A    between atoms: _257  and  _259
REMARK  110  A    between atoms: _259  and  _260
REMARK  111  A    between atoms: _262  and  _264
REMARK  112  A    between atoms: _264  and  _265
REMARK  113  A    between atoms: _264  and  _267
REMARK  114  A    between atoms: _267  and  _268
REMARK  115  A    between atoms: _271  and  _273
REMARK  116  A    between atoms: _273  and  _274
REMARK  117  A    between atoms: _273  and  _276
REMARK  118  A    between atoms: _276  and  _277
REMARK  119  A    between atoms: _280  and  _282
REMARK  120  A    between atoms: _282  and  _283
REMARK  121  A    between atoms: _286  and  _288
REMARK  122  A    between atoms: _288  and  _289
REMARK  123  A    between atoms: _288  and  _291
REMARK  124  A    between atoms: _291  and  _292
REMARK  125  A    between atoms: _297  and  _298
REMARK  126  A    between atoms: _300  and  _302
REMARK  127  A    between atoms: _302  and  _303
REMARK  128  A    between atoms: _302  and  _305
REMARK  129  A    between atoms: _305  and  _306
REMARK  130  A    between atoms: _311  and  _313
REMARK  131  A    between atoms: _313  and  _314
REMARK  132  A    between atoms: _313  and  _316
REMARK  133  A    between atoms: _316  and  _317
REMARK  134  A    between atoms: _317  and  _318
REMARK  135  A    between atoms: _318  and  _319
REMARK  136  A    between atoms: _319  and  _320
REMARK  137  A    between atoms: _324  and  _326
REMARK  138  A    between atoms: _326  and  _327
REMARK  139  A    between atoms: _326  and  _329
REMARK  140  A    between atoms: _329  and  _330
REMARK  141  A    between atoms: _332  and  _334
REMARK  142  A    between atoms: _334  and  _335
REMARK  143  A    between atoms: _334  and  _337
REMARK  144  A    between atoms: _337  and  _338
REMARK  145  A    between atoms: _341  and  _343
REMARK  146  A    between atoms: _343  and  _344
REMARK  147  A    between atoms: _343  and  _346
REMARK  148  A    between atoms: _346  and  _347
REMARK  149  A    between atoms: _350  and  _352
REMARK  150  A    between atoms: _352  and  _353
REMARK  151  A    between atoms: _352  and  _355
REMARK  152  A    between atoms: _355  and  _356
REMARK  153  A    between atoms: _356  and  _357
REMARK  154  A    between atoms: _359  and  _361
REMARK  155  A    between atoms: _361  and  _362
REMARK  156  A    between atoms: _361  and  _364
REMARK  157  A    between atoms: _364  and  _365
REMARK  158  A    between atoms: _367  and  _369
REMARK  159  A    between atoms: _369  and  _370
REMARK  160  A    between atoms: _369  and  _372
REMARK  161  A    between atoms: _375  and  _377
REMARK  162  A    between atoms: _377  and  _378
REMARK  163  A    between atoms: _377  and  _380
REMARK  164  A    between atoms: _380  and  _381
REMARK  165  A    between atoms: _384  and  _386
REMARK  166  A    between atoms: _386  and  _387
REMARK  167  A    between atoms: _386  and  _389
REMARK  168  A    between atoms: _389  and  _390
REMARK  169  A    between atoms: _395  and  _397
REMARK  170  A    between atoms: _397  and  _398
REMARK  171  A    between atoms: _397  and  _400
REMARK  172  A    between atoms: _400  and  _401
REMARK  173  A    between atoms: _404  and  _406
REMARK  174  A    between atoms: _406  and  _407
REMARK  175  A    between atoms: _406  and  _409
REMARK  176  A    between atoms: _409  and  _410
REMARK  177  A    between atoms: _416  and  _418
REMARK  178  A    between atoms: _418  and  _419
REMARK  179  A    between atoms: _418  and  _421
REMARK  180  A    between atoms: _421  and  _422
REMARK  181  A    between atoms: _422  and  _423
REMARK  182  A    between atoms: _423  and  _424
REMARK  183  A    between atoms: _433  and  _435
REMARK  184  A    between atoms: _435  and  _436
REMARK  185  A    between atoms: _435  and  _438
REMARK  186  A    between atoms: _441  and  _443
REMARK  187  A    between atoms: _443  and  _444
REMARK  188  A    between atoms: _443  and  _446
REMARK  189  A    between atoms: _446  and  _447
REMARK  190  A    between atoms: _449  and  _451
REMARK  191  A    between atoms: _451  and  _452
REMARK  192  A    between atoms: _451  and  _454
REMARK  193  A    between atoms: _454  and  _455
REMARK  194  A    between atoms: _461  and  _463
REMARK  195  A    between atoms: _463  and  _464
REMARK  196  A    between atoms: _463  and  _466
REMARK  197  A    between atoms: _466  and  _467
REMARK  198  A    between atoms: _469  and  _471
REMARK  199  A    between atoms: _471  and  _472
REMARK  200  A    between atoms: _475  and  _476
REMARK  201  A    between atoms: _481  and  _483
REMARK  202  A    between atoms: _483  and  _484
REMARK  203  A    between atoms: _483  and  _486
REMARK  204  A    between atoms: _486  and  _487
REMARK  205  A    between atoms: _493  and  _495
REMARK  206  A    between atoms: _495  and  _496
REMARK  207  A    between atoms: _495  and  _498
REMARK  208  A    between atoms: _498  and  _499
REMARK  209  A    between atoms: _505  and  _507
REMARK  210  A    between atoms: _507  and  _508
REMARK  211  A    between atoms: _507  and  _510
REMARK  212  A    between atoms: _510  and  _511
REMARK  213  A    between atoms: _511  and  _512
REMARK  214  A    between atoms: _512  and  _513
REMARK  215  A    between atoms: _522  and  _524
REMARK  216  A    between atoms: _524  and  _525
REMARK  217  A    between atoms: _527  and  _529
REMARK  218  A    between atoms: _529  and  _530
REMARK  219  A    between atoms: _529  and  _532
REMARK  220  A    between atoms: _532  and  _533
REMARK  221  A    between atoms: _536  and  _538
REMARK  222  A    between atoms: _538  and  _539
REMARK  223  A    between atoms: _541  and  _543
REMARK  224  A    between atoms: _543  and  _544
REMARK  225  A    between atoms: _543  and  _546
REMARK  226  A    between atoms: _546  and  _547
REMARK  227  A    between atoms: _547  and  _548
REMARK  228  A    between atoms: _550  and  _552
REMARK  229  A    between atoms: _552  and  _553
REMARK  230  A    between atoms: _556  and  _558
REMARK  231  A    between atoms: _558  and  _559
REMARK  232  A    between atoms: _558  and  _561
REMARK  233  A    between atoms: _561  and  _562
REMARK  234  A    between atoms: _564  and  _566
REMARK  235  A    between atoms: _566  and  _567
REMARK  236  A    between atoms: _566  and  _569
REMARK  237  A    between atoms: _569  and  _570
REMARK  238  A    between atoms: _573  and  _575
REMARK  239  A    between atoms: _575  and  _576
REMARK  240  A    between atoms: _575  and  _578
REMARK  241  A    between atoms: _578  and  _579
REMARK  242  A    between atoms: _584  and  _586
REMARK  243  A    between atoms: _586  and  _587
REMARK  244  A    between atoms: _586  and  _589
REMARK  245  A    between atoms: _589  and  _590
REMARK  246  A    between atoms: _595  and  _597
REMARK  247  A    between atoms: _597  and  _598
REMARK  248  A    between atoms: _597  and  _600
REMARK  249  A    between atoms: _603  and  _605
REMARK  250  A    between atoms: _605  and  _606
REMARK  251  A    between atoms: _605  and  _608
REMARK  252  A    between atoms: _608  and  _609
REMARK  253  A    between atoms: _614  and  _615
REMARK                            x       y       z     vdW  Elec       q    Type
REMARK                         _______ _______ _______ _____ _____    ______ ____
ROOT
ATOM      1  O   HOH     1      10.017  13.629  12.928  0.00  0.00    +0.000 OA
ENDROOT
TORSDOF 0
REMARK  Name = ../refined-set-2016/4dy6/4dy6_pocket.pdb
REMARK  253 active torsions:
REMARK  status: ('A' for Active; 'I' for Inactive)
REMARK    1  A    between atoms: _1  and  _3
REMARK    2  A    between atoms: _3  and  _4
REMARK    3  A    between atoms: _3  and  _6
REMARK    4  A    between atoms: _6  and  _7
REMARK    5  A    between atoms: _7  and  _8
REMARK    6  A    between atoms: _8  and  _9
REMARK    7  A    between atoms: _9  and  _10
REMARK    8  A    between atoms: _14  and  _16
REMARK    9  A    between atoms: _16  and  _17
REMARK   10  A    between atoms: _19  and  _21
REMARK   11  A    between atoms: _21  and  _22
REMARK   12  A    between atoms: _24  and  _26
REMARK   13  A    between atoms: _26  and  _27
REMARK   14  A    between atoms: _26  and  _29
REMARK   15  A    between atoms: _29  and  _30
REMARK   16  A    between atoms: _33  and  _35
REMARK   17  A    between atoms: _35  and  _36
REMARK   18  A    between atoms: _38  and  _40
REMARK   19  A    between atoms: _40  and  _41
REMARK   20  A    between atoms: _40  and  _43
REMARK   21  A    between atoms: _43  and  _44
REMARK   22  A    between atoms: _47  and  _49
REMARK   23  A    between atoms: _49  and  _50
REMARK   24  A    between atoms: _49  and  _52
REMARK   25  A    between atoms: _52  and  _53
REMARK   26  A    between atoms: _59  and  _61
REMARK   27  A    between atoms: _61  and  _62
REMARK   28  A    between atoms: _61  and  _64
REMARK   29  A    between atoms: _64  and  _65
REMARK   30  A    between atoms: _68  and  _70
REMARK   31  A    between atoms: _70  and  _71
REMARK   32  A    between atoms: _70  and  _73
REMARK   33  A    between atoms: _73  and  _74
REMARK   34  A    between atoms: _76  and  _78
REMARK   35  A    between atoms: _78  and  _79
REMARK   36  A    between atoms: _78  and  _81
REMARK   37  A    between atoms: _81  and  _82
REMARK   38  A    between atoms: _87  and  _89
REMARK   39  A    between atoms: _89  and  _90
REMARK   40  A    between atoms: _89  and  _92
REMARK   41  A    between atoms: _92  and  _93
REMARK   42  A    between atoms: _96  and  _98
REMARK   43  A    between atoms: _98  and  _99
REMARK   44  A    between atoms: _101  and  _103
REMARK   45  A    between atoms: _103  and  _104
REMARK   46  A    between atoms: _103  and  _106
REMARK   47  A    between atoms: _106  and  _107
REMARK   48  A    between atoms: _112  and  _114
REMARK   49  A    between atoms: _114  and  _115
REMARK   50  A    between atoms: _114  and  _117
REMARK   51  A    between atoms: _117  and  _118
REMARK   52  A    between atoms: _121  and  _123
REMARK   53  A    between atoms: _123  and  _124
REMARK   54  A    between atoms: _126  and  _128
REMARK   55  A    between atoms: _128  and  _129
REMARK   56  A    between atoms: _128  and  _131
REMARK   57  A    between atoms: _131  and  _132
REMARK   58  A    between atoms: _138  and  _140
REMARK   59  A    between atoms: _140  and  _141
REMARK   60  A    between atoms: _140  and  _143
REMARK   61  A    between atoms: _143  and  _144
REMARK   62  A    between atoms: _149  and  _150
REMARK   63  A    between atoms: _152  and  _154
REMARK   64  A    between atoms: _154  and  _155
REMARK   65  A    between atoms: _158  and  _160
REMARK   66  A    between atoms: _160  and  _161
REMARK   67  A    between atoms: _160  and  _163
REMARK   68  A    between atoms: _163  and  _164
REMARK   69  A    between atoms: _167  and  _169
REMARK   70  A    between atoms: _169  and  _170
REMARK   71  A    between atoms: _169  and  _172
REMARK   72  A    between atoms: _172  and  _173
REMARK   73  A    between atoms: _178  and  _180
REMARK   74  A    between atoms: _180  and  _181
REMARK   75  A    between atoms: _180  and  _183
REMARK   76  A    between atoms: _183  and  _184
REMARK   77  A    between atoms: _184  and  _185
REMARK   78  A    between atoms: _188  and  _190
REMARK   79  A    between atoms: _190  and  _191
REMARK   80  A    between atoms: _190  and  _193
REMARK   81  A    between atoms: _193  and  _194
REMARK   82  A    between atoms: _196  and  _198
REMARK   83  A    between atoms: _198  and  _199
REMARK   84  A    between atoms: _198  and  _201
REMARK   85  A    between atoms: _201  and  _202
REMARK   86  A    between atoms: _205  and  _207
REMARK   87  A    between atoms: _207  and  _208
REMARK   88  A    between atoms: _207  and  _210
REMARK   89  A    between atoms: _210  and  _211
REMARK   90  A    between atoms: _211  and  _212
REMARK   91  A    between atoms: _212  and  _213
REMARK   92  A    between atoms: _213  and  _214
REMARK   93  A    between atoms: _218  and  _220
REMARK   94  A    between atoms: _220  and  _221
REMARK   95  A    between atoms: _220  and  _223
REMARK   96  A    between atoms: _225  and  _227
REMARK   97  A    between atoms: _227  and  _228
REMARK   98  A    between atoms: _227  and  _230
REMARK   99  A    between atoms: _230  and  _231
REMARK  100  A    between atoms: _233  and  _235
REMARK  101  A    between atoms: _235  and  _236
REMARK  102  A    between atoms: _235  and  _238
REMARK  103  A    between atoms: _238  and  _239
REMARK  104  A    between atoms: _243  and  _244
REMARK  105  A    between atoms: _249  and  _251
REMARK  106  A    between atoms: _251  and  _252
REMARK  107  A    between atoms: _251  and  _254
REMARK  108  A    between atoms: _254  and  _255
REMARK  109  A    between atoms: _257  and  _259
REMARK  110  A    between atoms: _259  and  _260
REMARK  111  A    between atoms: _262  and  _264
REMARK  112  A    between atoms: _264  and  _265
REMARK  113  A    between atoms: _264  and  _267
REMARK  114  A    between atoms: _267  and  _268
REMARK  115  A    between atoms: _271  and  _273
REMARK  116  A    between atoms: _273  and  _274
REMARK  117  A    between atoms: _273  and  _276
REMARK  118  A    between atoms: _276  and  _277
REMARK  119  A    between atoms: _280  and  _282
REMARK  120  A    between atoms: _282  and  _283
REMARK  121  A    between atoms: _286  and  _288
REMARK  122  A    between atoms: _288  and  _289
REMARK  123  A    between atoms: _288  and  _291
REMARK  124  A    between atoms: _291  and  _292
REMARK  125  A    between atoms: _297  and  _298
REMARK  126  A    between atoms: _300  and  _302
REMARK  127  A    between atoms: _302  and  _303
REMARK  128  A    between atoms: _302  and  _305
REMARK  129  A    between atoms: _305  and  _306
REMARK  130  A    between atoms: _311  and  _313
REMARK  131  A    between atoms: _313  and  _314
REMARK  132  A    between atoms: _313  and  _316
REMARK  133  A    between atoms: _316  and  _317
REMARK  134  A    between atoms: _317  and  _318
REMARK  135  A    between atoms: _318  and  _319
REMARK  136  A    between atoms: _319  and  _320
REMARK  137  A    between atoms: _324  and  _326
REMARK  138  A    between atoms: _326  and  _327
REMARK  139  A    between atoms: _326  and  _329
REMARK  140  A    between atoms: _329  and  _330
REMARK  141  A    between atoms: _332  and  _334
REMARK  142  A    between atoms: _334  and  _335
REMARK  143  A    between atoms: _334  and  _337
REMARK  144  A    between atoms: _337  and  _338
REMARK  145  A    between atoms: _341  and  _343
REMARK  146  A    between atoms: _343  and  _344
REMARK  147  A    between atoms: _343  and  _346
REMARK  148  A    between atoms: _346  and  _347
REMARK  149  A    between atoms: _350  and  _352
REMARK  150  A    between atoms: _352  and  _353
REMARK  151  A    between atoms: _352  and  _355
REMARK  152  A    between atoms: _355  and  _356
REMARK  153  A    between atoms: _356  and  _357
REMARK  154  A    between atoms: _359  and  _361
REMARK  155  A    between atoms: _361  and  _362
REMARK  156  A    between atoms: _361  and  _364
REMARK  157  A    between atoms: _364  and  _365
REMARK  158  A    between atoms: _367  and  _369
REMARK  159  A    between atoms: _369  and  _370
REMARK  160  A    between atoms: _369  and  _372
REMARK  161  A    between atoms: _375  and  _377
REMARK  162  A    between atoms: _377  and  _378
REMARK  163  A    between atoms: _377  and  _380
REMARK  164  A    between atoms: _380  and  _381
REMARK  165  A    between atoms: _384  and  _386
REMARK  166  A    between atoms: _386  and  _387
REMARK  167  A    between atoms: _386  and  _389
REMARK  168  A    between atoms: _389  and  _390
REMARK  169  A    between atoms: _395  and  _397
REMARK  170  A    between atoms: _397  and  _398
REMARK  171  A    between atoms: _397  and  _400
REMARK  172  A    between atoms: _400  and  _401
REMARK  173  A    between atoms: _404  and  _406
REMARK  174  A    between atoms: _406  and  _407
REMARK  175  A    between atoms: _406  and  _409
REMARK  176  A    between atoms: _409  and  _410
REMARK  177  A    between atoms: _416  and  _418
REMARK  178  A    between atoms: _418  and  _419
REMARK  179  A    between atoms: _418  and  _421
REMARK  180  A    between atoms: _421  and  _422
REMARK  181  A    between atoms: _422  and  _423
REMARK  182  A    between atoms: _423  and  _424
REMARK  183  A    between atoms: _433  and  _435
REMARK  184  A    between atoms: _435  and  _436
REMARK  185  A    between atoms: _435  and  _438
REMARK  186  A    between atoms: _441  and  _443
REMARK  187  A    between atoms: _443  and  _444
REMARK  188  A    between atoms: _443  and  _446
REMARK  189  A    between atoms: _446  and  _447
REMARK  190  A    between atoms: _449  and  _451
REMARK  191  A    between atoms: _451  and  _452
REMARK  192  A    between atoms: _451  and  _454
REMARK  193  A    between atoms: _454  and  _455
REMARK  194  A    between atoms: _461  and  _463
REMARK  195  A    between atoms: _463  and  _464
REMARK  196  A    between atoms: _463  and  _466
REMARK  197  A    between atoms: _466  and  _467
REMARK  198  A    between atoms: _469  and  _471
REMARK  199  A    between atoms: _471  and  _472
REMARK  200  A    between atoms: _475  and  _476
REMARK  201  A    between atoms: _481  and  _483
REMARK  202  A    between atoms: _483  and  _484
REMARK  203  A    between atoms: _483  and  _486
REMARK  204  A    between atoms: _486  and  _487
REMARK  205  A    between atoms: _493  and  _495
REMARK  206  A    between atoms: _495  and  _496
REMARK  207  A    between atoms: _495  and  _498
REMARK  208  A    between atoms: _498  and  _499
REMARK  209  A    between atoms: _505  and  _507
REMARK  210  A    between atoms: _507  and  _508
REMARK  211  A    between atoms: _507  and  _510
REMARK  212  A    between atoms: _510  and  _511
REMARK  213  A    between atoms: _511  and  _512
REMARK  214  A    between atoms: _512  and  _513
REMARK  215  A    between atoms: _522  and  _524
REMARK  216  A    between atoms: _524  and  _525
REMARK  217  A    between atoms: _527  and  _529
REMARK  218  A    between atoms: _529  and  _530
REMARK  219  A    between atoms: _529  and  _532
REMARK  220  A    between atoms: _532  and  _533
REMARK  221  A    between atoms: _536  and  _538
REMARK  222  A    between atoms: _538  and  _539
REMARK  223  A    between atoms: _541  and  _543
REMARK  224  A    between atoms: _543  and  _544
REMARK  225  A    between atoms: _543  and  _546
REMARK  226  A    between atoms: _546  and  _547
REMARK  227  A    between atoms: _547  and  _548
REMARK  228  A    between atoms: _550  and  _552
REMARK  229  A    between atoms: _552  and  _553
REMARK  230  A    between atoms: _556  and  _558
REMARK  231  A    between atoms: _558  and  _559
REMARK  232  A    between atoms: _558  and  _561
REMARK  233  A    between atoms: _561  and  _562
REMARK  234  A    between atoms: _564  and  _566
REMARK  235  A    between atoms: _566  and  _567
REMARK  236  A    between atoms: _566  and  _569
REMARK  237  A    between atoms: _569  and  _570
REMARK  238  A    between atoms: _573  and  _575
REMARK  239  A    between atoms: _575  and  _576
REMARK  240  A    between atoms: _575  and  _578
REMARK  241  A    between atoms: _578  and  _579
REMARK  242  A    between atoms: _584  and  _586
REMARK  243  A    between atoms: _586  and  _587
REMARK  244  A    between atoms: _586  and  _589
REMARK  245  A    between atoms: _589  and  _590
REMARK  246  A    between atoms: _595  and  _597
REMARK  247  A    between atoms: _597  and  _598
REMARK  248  A    between atoms: _597  and  _600
REMARK  249  A    between atoms: _603  and  _605
REMARK  250  A    between atoms: _605  and  _606
REMARK  251  A    between atoms: _605  and  _608
REMARK  252  A    between atoms: _608  and  _609
REMARK  253  A    between atoms: _614  and  _615
REMARK                            x       y       z     vdW  Elec       q    Type
REMARK                         _______ _______ _______ _____ _____    ______ ____
ROOT
ATOM      1  O   HOH     1       8.691   8.494  20.442  0.00  0.00    +0.000 OA
ENDROOT
TORSDOF 0
REMARK  Name = ../refined-set-2016/4dy6/4dy6_pocket.pdb
REMARK  253 active torsions:
REMARK  status: ('A' for Active; 'I' for Inactive)
REMARK    1  A    between atoms: _1  and  _3
REMARK    2  A    between atoms: _3  and  _4
REMARK    3  A    between atoms: _3  and  _6
REMARK    4  A    between atoms: _6  and  _7
REMARK    5  A    between atoms: _7  and  _8
REMARK    6  A    between atoms: _8  and  _9
REMARK    7  A    between atoms: _9  and  _10
REMARK    8  A    between atoms: _14  and  _16
REMARK    9  A    between atoms: _16  and  _17
REMARK   10  A    between atoms: _19  and  _21
REMARK   11  A    between atoms: _21  and  _22
REMARK   12  A    between atoms: _24  and  _26
REMARK   13  A    between atoms: _26  and  _27
REMARK   14  A    between atoms: _26  and  _29
REMARK   15  A    between atoms: _29  and  _30
REMARK   16  A    between atoms: _33  and  _35
REMARK   17  A    between atoms: _35  and  _36
REMARK   18  A    between atoms: _38  and  _40
REMARK   19  A    between atoms: _40  and  _41
REMARK   20  A    between atoms: _40  and  _43
REMARK   21  A    between atoms: _43  and  _44
REMARK   22  A    between atoms: _47  and  _49
REMARK   23  A    between atoms: _49  and  _50
REMARK   24  A    between atoms: _49  and  _52
REMARK   25  A    between atoms: _52  and  _53
REMARK   26  A    between atoms: _59  and  _61
REMARK   27  A    between atoms: _61  and  _62
REMARK   28  A    between atoms: _61  and  _64
REMARK   29  A    between atoms: _64  and  _65
REMARK   30  A    between atoms: _68  and  _70
REMARK   31  A    between atoms: _70  and  _71
REMARK   32  A    between atoms: _70  and  _73
REMARK   33  A    between atoms: _73  and  _74
REMARK   34  A    between atoms: _76  and  _78
REMARK   35  A    between atoms: _78  and  _79
REMARK   36  A    between atoms: _78  and  _81
REMARK   37  A    between atoms: _81  and  _82
REMARK   38  A    between atoms: _87  and  _89
REMARK   39  A    between atoms: _89  and  _90
REMARK   40  A    between atoms: _89  and  _92
REMARK   41  A    between atoms: _92  and  _93
REMARK   42  A    between atoms: _96  and  _98
REMARK   43  A    between atoms: _98  and  _99
REMARK   44  A    between atoms: _101  and  _103
REMARK   45  A    between atoms: _103  and  _104
REMARK   46  A    between atoms: _103  and  _106
REMARK   47  A    between atoms: _106  and  _107
REMARK   48  A    between atoms: _112  and  _114
REMARK   49  A    between atoms: _114  and  _115
REMARK   50  A    between atoms: _114  and  _117
REMARK   51  A    between atoms: _117  and  _118
REMARK   52  A    between atoms: _121  and  _123
REMARK   53  A    between atoms: _123  and  _124
REMARK   54  A    between atoms: _126  and  _128
REMARK   55  A    between atoms: _128  and  _129
REMARK   56  A    between atoms: _128  and  _131
REMARK   57  A    between atoms: _131  and  _132
REMARK   58  A    between atoms: _138  and  _140
REMARK   59  A    between atoms: _140  and  _141
REMARK   60  A    between atoms: _140  and  _143
REMARK   61  A    between atoms: _143  and  _144
REMARK   62  A    between atoms: _149  and  _150
REMARK   63  A    between atoms: _152  and  _154
REMARK   64  A    between atoms: _154  and  _155
REMARK   65  A    between atoms: _158  and  _160
REMARK   66  A    between atoms: _160  and  _161
REMARK   67  A    between atoms: _160  and  _163
REMARK   68  A    between atoms: _163  and  _164
REMARK   69  A    between atoms: _167  and  _169
REMARK   70  A    between atoms: _169  and  _170
REMARK   71  A    between atoms: _169  and  _172
REMARK   72  A    between atoms: _172  and  _173
REMARK   73  A    between atoms: _178  and  _180
REMARK   74  A    between atoms: _180  and  _181
REMARK   75  A    between atoms: _180  and  _183
REMARK   76  A    between atoms: _183  and  _184
REMARK   77  A    between atoms: _184  and  _185
REMARK   78  A    between atoms: _188  and  _190
REMARK   79  A    between atoms: _190  and  _191
REMARK   80  A    between atoms: _190  and  _193
REMARK   81  A    between atoms: _193  and  _194
REMARK   82  A    between atoms: _196  and  _198
REMARK   83  A    between atoms: _198  and  _199
REMARK   84  A    between atoms: _198  and  _201
REMARK   85  A    between atoms: _201  and  _202
REMARK   86  A    between atoms: _205  and  _207
REMARK   87  A    between atoms: _207  and  _208
REMARK   88  A    between atoms: _207  and  _210
REMARK   89  A    between atoms: _210  and  _211
REMARK   90  A    between atoms: _211  and  _212
REMARK   91  A    between atoms: _212  and  _213
REMARK   92  A    between atoms: _213  and  _214
REMARK   93  A    between atoms: _218  and  _220
REMARK   94  A    between atoms: _220  and  _221
REMARK   95  A    between atoms: _220  and  _223
REMARK   96  A    between atoms: _225  and  _227
REMARK   97  A    between atoms: _227  and  _228
REMARK   98  A    between atoms: _227  and  _230
REMARK   99  A    between atoms: _230  and  _231
REMARK  100  A    between atoms: _233  and  _235
REMARK  101  A    between atoms: _235  and  _236
REMARK  102  A    between atoms: _235  and  _238
REMARK  103  A    between atoms: _238  and  _239
REMARK  104  A    between atoms: _243  and  _244
REMARK  105  A    between atoms: _249  and  _251
REMARK  106  A    between atoms: _251  and  _252
REMARK  107  A    between atoms: _251  and  _254
REMARK  108  A    between atoms: _254  and  _255
REMARK  109  A    between atoms: _257  and  _259
REMARK  110  A    between atoms: _259  and  _260
REMARK  111  A    between atoms: _262  and  _264
REMARK  112  A    between atoms: _264  and  _265
REMARK  113  A    between atoms: _264  and  _267
REMARK  114  A    between atoms: _267  and  _268
REMARK  115  A    between atoms: _271  and  _273
REMARK  116  A    between atoms: _273  and  _274
REMARK  117  A    between atoms: _273  and  _276
REMARK  118  A    between atoms: _276  and  _277
REMARK  119  A    between atoms: _280  and  _282
REMARK  120  A    between atoms: _282  and  _283
REMARK  121  A    between atoms: _286  and  _288
REMARK  122  A    between atoms: _288  and  _289
REMARK  123  A    between atoms: _288  and  _291
REMARK  124  A    between atoms: _291  and  _292
REMARK  125  A    between atoms: _297  and  _298
REMARK  126  A    between atoms: _300  and  _302
REMARK  127  A    between atoms: _302  and  _303
REMARK  128  A    between atoms: _302  and  _305
REMARK  129  A    between atoms: _305  and  _306
REMARK  130  A    between atoms: _311  and  _313
REMARK  131  A    between atoms: _313  and  _314
REMARK  132  A    between atoms: _313  and  _316
REMARK  133  A    between atoms: _316  and  _317
REMARK  134  A    between atoms: _317  and  _318
REMARK  135  A    between atoms: _318  and  _319
REMARK  136  A    between atoms: _319  and  _320
REMARK  137  A    between atoms: _324  and  _326
REMARK  138  A    between atoms: _326  and  _327
REMARK  139  A    between atoms: _326  and  _329
REMARK  140  A    between atoms: _329  and  _330
REMARK  141  A    between atoms: _332  and  _334
REMARK  142  A    between atoms: _334  and  _335
REMARK  143  A    between atoms: _334  and  _337
REMARK  144  A    between atoms: _337  and  _338
REMARK  145  A    between atoms: _341  and  _343
REMARK  146  A    between atoms: _343  and  _344
REMARK  147  A    between atoms: _343  and  _346
REMARK  148  A    between atoms: _346  and  _347
REMARK  149  A    between atoms: _350  and  _352
REMARK  150  A    between atoms: _352  and  _353
REMARK  151  A    between atoms: _352  and  _355
REMARK  152  A    between atoms: _355  and  _356
REMARK  153  A    between atoms: _356  and  _357
REMARK  154  A    between atoms: _359  and  _361
REMARK  155  A    between atoms: _361  and  _362
REMARK  156  A    between atoms: _361  and  _364
REMARK  157  A    between atoms: _364  and  _365
REMARK  158  A    between atoms: _367  and  _369
REMARK  159  A    between atoms: _369  and  _370
REMARK  160  A    between atoms: _369  and  _372
REMARK  161  A    between atoms: _375  and  _377
REMARK  162  A    between atoms: _377  and  _378
REMARK  163  A    between atoms: _377  and  _380
REMARK  164  A    between atoms: _380  and  _381
REMARK  165  A    between atoms: _384  and  _386
REMARK  166  A    between atoms: _386  and  _387
REMARK  167  A    between atoms: _386  and  _389
REMARK  168  A    between atoms: _389  and  _390
REMARK  169  A    between atoms: _395  and  _397
REMARK  170  A    between atoms: _397  and  _398
REMARK  171  A    between atoms: _397  and  _400
REMARK  172  A    between atoms: _400  and  _401
REMARK  173  A    between atoms: _404  and  _406
REMARK  174  A    between atoms: _406  and  _407
REMARK  175  A    between atoms: _406  and  _409
REMARK  176  A    between atoms: _409  and  _410
REMARK  177  A    between atoms: _416  and  _418
REMARK  178  A    between atoms: _418  and  _419
REMARK  179  A    between atoms: _418  and  _421
REMARK  180  A    between atoms: _421  and  _422
REMARK  181  A    between atoms: _422  and  _423
REMARK  182  A    between atoms: _423  and  _424
REMARK  183  A    between atoms: _433  and  _435
REMARK  184  A    between atoms: _435  and  _436
REMARK  185  A    between atoms: _435  and  _438
REMARK  186  A    between atoms: _441  and  _443
REMARK  187  A    between atoms: _443  and  _444
REMARK  188  A    between atoms: _443  and  _446
REMARK  189  A    between atoms: _446  and  _447
REMARK  190  A    between atoms: _449  and  _451
REMARK  191  A    between atoms: _451  and  _452
REMARK  192  A    between atoms: _451  and  _454
REMARK  193  A    between atoms: _454  and  _455
REMARK  194  A    between atoms: _461  and  _463
REMARK  195  A    between atoms: _463  and  _464
REMARK  196  A    between atoms: _463  and  _466
REMARK  197  A    between atoms: _466  and  _467
REMARK  198  A    between atoms: _469  and  _471
REMARK  199  A    between atoms: _471  and  _472
REMARK  200  A    between atoms: _475  and  _476
REMARK  201  A    between atoms: _481  and  _483
REMARK  202  A    between atoms: _483  and  _484
REMARK  203  A    between atoms: _483  and  _486
REMARK  204  A    between atoms: _486  and  _487
REMARK  205  A    between atoms: _493  and  _495
REMARK  206  A    between atoms: _495  and  _496
REMARK  207  A    between atoms: _495  and  _498
REMARK  208  A    between atoms: _498  and  _499
REMARK  209  A    between atoms: _505  and  _507
REMARK  210  A    between atoms: _507  and  _508
REMARK  211  A    between atoms: _507  and  _510
REMARK  212  A    between atoms: _510  and  _511
REMARK  213  A    between atoms: _511  and  _512
REMARK  214  A    between atoms: _512  and  _513
REMARK  215  A    between atoms: _522  and  _524
REMARK  216  A    between atoms: _524  and  _525
REMARK  217  A    between atoms: _527  and  _529
REMARK  218  A    between atoms: _529  and  _530
REMARK  219  A    between atoms: _529  and  _532
REMARK  220  A    between atoms: _532  and  _533
REMARK  221  A    between atoms: _536  and  _538
REMARK  222  A    between atoms: _538  and  _539
REMARK  223  A    between atoms: _541  and  _543
REMARK  224  A    between atoms: _543  and  _544
REMARK  225  A    between atoms: _543  and  _546
REMARK  226  A    between atoms: _546  and  _547
REMARK  227  A    between atoms: _547  and  _548
REMARK  228  A    between atoms: _550  and  _552
REMARK  229  A    between atoms: _552  and  _553
REMARK  230  A    between atoms: _556  and  _558
REMARK  231  A    between atoms: _558  and  _559
REMARK  232  A    between atoms: _558  and  _561
REMARK  233  A    between atoms: _561  and  _562
REMARK  234  A    between atoms: _564  and  _566
REMARK  235  A    between atoms: _566  and  _567
REMARK  236  A    between atoms: _566  and  _569
REMARK  237  A    between atoms: _569  and  _570
REMARK  238  A    between atoms: _573  and  _575
REMARK  239  A    between atoms: _575  and  _576
REMARK  240  A    between atoms: _575  and  _578
REMARK  241  A    between atoms: _578  and  _579
REMARK  242  A    between atoms: _584  and  _586
REMARK  243  A    between atoms: _586  and  _587
REMARK  244  A    between atoms: _586  and  _589
REMARK  245  A    between atoms: _589  and  _590
REMARK  246  A    between atoms: _595  and  _597
REMARK  247  A    between atoms: _597  and  _598
REMARK  248  A    between atoms: _597  and  _600
REMARK  249  A    between atoms: _603  and  _605
REMARK  250  A    between atoms: _605  and  _606
REMARK  251  A    between atoms: _605  and  _608
REMARK  252  A    between atoms: _608  and  _609
REMARK  253  A    between atoms: _614  and  _615
REMARK                            x       y       z     vdW  Elec       q    Type
REMARK                         _______ _______ _______ _____ _____    ______ ____
ROOT
ATOM      1  O   HOH     1       7.508   7.409   6.877  0.00  0.00    +0.000 OA
ENDROOT
TORSDOF 0
REMARK  Name = ../refined-set-2016/4dy6/4dy6_pocket.pdb
REMARK  253 active torsions:
REMARK  status: ('A' for Active; 'I' for Inactive)
REMARK    1  A    between atoms: _1  and  _3
REMARK    2  A    between atoms: _3  and  _4
REMARK    3  A    between atoms: _3  and  _6
REMARK    4  A    between atoms: _6  and  _7
REMARK    5  A    between atoms: _7  and  _8
REMARK    6  A    between atoms: _8  and  _9
REMARK    7  A    between atoms: _9  and  _10
REMARK    8  A    between atoms: _14  and  _16
REMARK    9  A    between atoms: _16  and  _17
REMARK   10  A    between atoms: _19  and  _21
REMARK   11  A    between atoms: _21  and  _22
REMARK   12  A    between atoms: _24  and  _26
REMARK   13  A    between atoms: _26  and  _27
REMARK   14  A    between atoms: _26  and  _29
REMARK   15  A    between atoms: _29  and  _30
REMARK   16  A    between atoms: _33  and  _35
REMARK   17  A    between atoms: _35  and  _36
REMARK   18  A    between atoms: _38  and  _40
REMARK   19  A    between atoms: _40  and  _41
REMARK   20  A    between atoms: _40  and  _43
REMARK   21  A    between atoms: _43  and  _44
REMARK   22  A    between atoms: _47  and  _49
REMARK   23  A    between atoms: _49  and  _50
REMARK   24  A    between atoms: _49  and  _52
REMARK   25  A    between atoms: _52  and  _53
REMARK   26  A    between atoms: _59  and  _61
REMARK   27  A    between atoms: _61  and  _62
REMARK   28  A    between atoms: _61  and  _64
REMARK   29  A    between atoms: _64  and  _65
REMARK   30  A    between atoms: _68  and  _70
REMARK   31  A    between atoms: _70  and  _71
REMARK   32  A    between atoms: _70  and  _73
REMARK   33  A    between atoms: _73  and  _74
REMARK   34  A    between atoms: _76  and  _78
REMARK   35  A    between atoms: _78  and  _79
REMARK   36  A    between atoms: _78  and  _81
REMARK   37  A    between atoms: _81  and  _82
REMARK   38  A    between atoms: _87  and  _89
REMARK   39  A    between atoms: _89  and  _90
REMARK   40  A    between atoms: _89  and  _92
REMARK   41  A    between atoms: _92  and  _93
REMARK   42  A    between atoms: _96  and  _98
REMARK   43  A    between atoms: _98  and  _99
REMARK   44  A    between atoms: _101  and  _103
REMARK   45  A    between atoms: _103  and  _104
REMARK   46  A    between atoms: _103  and  _106
REMARK   47  A    between atoms: _106  and  _107
REMARK   48  A    between atoms: _112  and  _114
REMARK   49  A    between atoms: _114  and  _115
REMARK   50  A    between atoms: _114  and  _117
REMARK   51  A    between atoms: _117  and  _118
REMARK   52  A    between atoms: _121  and  _123
REMARK   53  A    between atoms: _123  and  _124
REMARK   54  A    between atoms: _126  and  _128
REMARK   55  A    between atoms: _128  and  _129
REMARK   56  A    between atoms: _128  and  _131
REMARK   57  A    between atoms: _131  and  _132
REMARK   58  A    between atoms: _138  and  _140
REMARK   59  A    between atoms: _140  and  _141
REMARK   60  A    between atoms: _140  and  _143
REMARK   61  A    between atoms: _143  and  _144
REMARK   62  A    between atoms: _149  and  _150
REMARK   63  A    between atoms: _152  and  _154
REMARK   64  A    between atoms: _154  and  _155
REMARK   65  A    between atoms: _158  and  _160
REMARK   66  A    between atoms: _160  and  _161
REMARK   67  A    between atoms: _160  and  _163
REMARK   68  A    between atoms: _163  and  _164
REMARK   69  A    between atoms: _167  and  _169
REMARK   70  A    between atoms: _169  and  _170
REMARK   71  A    between atoms: _169  and  _172
REMARK   72  A    between atoms: _172  and  _173
REMARK   73  A    between atoms: _178  and  _180
REMARK   74  A    between atoms: _180  and  _181
REMARK   75  A    between atoms: _180  and  _183
REMARK   76  A    between atoms: _183  and  _184
REMARK   77  A    between atoms: _184  and  _185
REMARK   78  A    between atoms: _188  and  _190
REMARK   79  A    between atoms: _190  and  _191
REMARK   80  A    between atoms: _190  and  _193
REMARK   81  A    between atoms: _193  and  _194
REMARK   82  A    between atoms: _196  and  _198
REMARK   83  A    between atoms: _198  and  _199
REMARK   84  A    between atoms: _198  and  _201
REMARK   85  A    between atoms: _201  and  _202
REMARK   86  A    between atoms: _205  and  _207
REMARK   87  A    between atoms: _207  and  _208
REMARK   88  A    between atoms: _207  and  _210
REMARK   89  A    between atoms: _210  and  _211
REMARK   90  A    between atoms: _211  and  _212
REMARK   91  A    between atoms: _212  and  _213
REMARK   92  A    between atoms: _213  and  _214
REMARK   93  A    between atoms: _218  and  _220
REMARK   94  A    between atoms: _220  and  _221
REMARK   95  A    between atoms: _220  and  _223
REMARK   96  A    between atoms: _225  and  _227
REMARK   97  A    between atoms: _227  and  _228
REMARK   98  A    between atoms: _227  and  _230
REMARK   99  A    between atoms: _230  and  _231
REMARK  100  A    between atoms: _233  and  _235
REMARK  101  A    between atoms: _235  and  _236
REMARK  102  A    between atoms: _235  and  _238
REMARK  103  A    between atoms: _238  and  _239
REMARK  104  A    between atoms: _243  and  _244
REMARK  105  A    between atoms: _249  and  _251
REMARK  106  A    between atoms: _251  and  _252
REMARK  107  A    between atoms: _251  and  _254
REMARK  108  A    between atoms: _254  and  _255
REMARK  109  A    between atoms: _257  and  _259
REMARK  110  A    between atoms: _259  and  _260
REMARK  111  A    between atoms: _262  and  _264
REMARK  112  A    between atoms: _264  and  _265
REMARK  113  A    between atoms: _264  and  _267
REMARK  114  A    between atoms: _267  and  _268
REMARK  115  A    between atoms: _271  and  _273
REMARK  116  A    between atoms: _273  and  _274
REMARK  117  A    between atoms: _273  and  _276
REMARK  118  A    between atoms: _276  and  _277
REMARK  119  A    between atoms: _280  and  _282
REMARK  120  A    between atoms: _282  and  _283
REMARK  121  A    between atoms: _286  and  _288
REMARK  122  A    between atoms: _288  and  _289
REMARK  123  A    between atoms: _288  and  _291
REMARK  124  A    between atoms: _291  and  _292
REMARK  125  A    between atoms: _297  and  _298
REMARK  126  A    between atoms: _300  and  _302
REMARK  127  A    between atoms: _302  and  _303
REMARK  128  A    between atoms: _302  and  _305
REMARK  129  A    between atoms: _305  and  _306
REMARK  130  A    between atoms: _311  and  _313
REMARK  131  A    between atoms: _313  and  _314
REMARK  132  A    between atoms: _313  and  _316
REMARK  133  A    between atoms: _316  and  _317
REMARK  134  A    between atoms: _317  and  _318
REMARK  135  A    between atoms: _318  and  _319
REMARK  136  A    between atoms: _319  and  _320
REMARK  137  A    between atoms: _324  and  _326
REMARK  138  A    between atoms: _326  and  _327
REMARK  139  A    between atoms: _326  and  _329
REMARK  140  A    between atoms: _329  and  _330
REMARK  141  A    between atoms: _332  and  _334
REMARK  142  A    between atoms: _334  and  _335
REMARK  143  A    between atoms: _334  and  _337
REMARK  144  A    between atoms: _337  and  _338
REMARK  145  A    between atoms: _341  and  _343
REMARK  146  A    between atoms: _343  and  _344
REMARK  147  A    between atoms: _343  and  _346
REMARK  148  A    between atoms: _346  and  _347
REMARK  149  A    between atoms: _350  and  _352
REMARK  150  A    between atoms: _352  and  _353
REMARK  151  A    between atoms: _352  and  _355
REMARK  152  A    between atoms: _355  and  _356
REMARK  153  A    between atoms: _356  and  _357
REMARK  154  A    between atoms: _359  and  _361
REMARK  155  A    between atoms: _361  and  _362
REMARK  156  A    between atoms: _361  and  _364
REMARK  157  A    between atoms: _364  and  _365
REMARK  158  A    between atoms: _367  and  _369
REMARK  159  A    between atoms: _369  and  _370
REMARK  160  A    between atoms: _369  and  _372
REMARK  161  A    between atoms: _375  and  _377
REMARK  162  A    between atoms: _377  and  _378
REMARK  163  A    between atoms: _377  and  _380
REMARK  164  A    between atoms: _380  and  _381
REMARK  165  A    between atoms: _384  and  _386
REMARK  166  A    between atoms: _386  and  _387
REMARK  167  A    between atoms: _386  and  _389
REMARK  168  A    between atoms: _389  and  _390
REMARK  169  A    between atoms: _395  and  _397
REMARK  170  A    between atoms: _397  and  _398
REMARK  171  A    between atoms: _397  and  _400
REMARK  172  A    between atoms: _400  and  _401
REMARK  173  A    between atoms: _404  and  _406
REMARK  174  A    between atoms: _406  and  _407
REMARK  175  A    between atoms: _406  and  _409
REMARK  176  A    between atoms: _409  and  _410
REMARK  177  A    between atoms: _416  and  _418
REMARK  178  A    between atoms: _418  and  _419
REMARK  179  A    between atoms: _418  and  _421
REMARK  180  A    between atoms: _421  and  _422
REMARK  181  A    between atoms: _422  and  _423
REMARK  182  A    between atoms: _423  and  _424
REMARK  183  A    between atoms: _433  and  _435
REMARK  184  A    between atoms: _435  and  _436
REMARK  185  A    between atoms: _435  and  _438
REMARK  186  A    between atoms: _441  and  _443
REMARK  187  A    between atoms: _443  and  _444
REMARK  188  A    between atoms: _443  and  _446
REMARK  189  A    between atoms: _446  and  _447
REMARK  190  A    between atoms: _449  and  _451
REMARK  191  A    between atoms: _451  and  _452
REMARK  192  A    between atoms: _451  and  _454
REMARK  193  A    between atoms: _454  and  _455
REMARK  194  A    between atoms: _461  and  _463
REMARK  195  A    between atoms: _463  and  _464
REMARK  196  A    between atoms: _463  and  _466
REMARK  197  A    between atoms: _466  and  _467
REMARK  198  A    between atoms: _469  and  _471
REMARK  199  A    between atoms: _471  and  _472
REMARK  200  A    between atoms: _475  and  _476
REMARK  201  A    between atoms: _481  and  _483
REMARK  202  A    between atoms: _483  and  _484
REMARK  203  A    between atoms: _483  and  _486
REMARK  204  A    between atoms: _486  and  _487
REMARK  205  A    between atoms: _493  and  _495
REMARK  206  A    between atoms: _495  and  _496
REMARK  207  A    between atoms: _495  and  _498
REMARK  208  A    between atoms: _498  and  _499
REMARK  209  A    between atoms: _505  and  _507
REMARK  210  A    between atoms: _507  and  _508
REMARK  211  A    between atoms: _507  and  _510
REMARK  212  A    between atoms: _510  and  _511
REMARK  213  A    between atoms: _511  and  _512
REMARK  214  A    between atoms: _512  and  _513
REMARK  215  A    between atoms: _522  and  _524
REMARK  216  A    between atoms: _524  and  _525
REMARK  217  A    between atoms: _527  and  _529
REMARK  218  A    between atoms: _529  and  _530
REMARK  219  A    between atoms: _529  and  _532
REMARK  220  A    between atoms: _532  and  _533
REMARK  221  A    between atoms: _536  and  _538
REMARK  222  A    between atoms: _538  and  _539
REMARK  223  A    between atoms: _541  and  _543
REMARK  224  A    between atoms: _543  and  _544
REMARK  225  A    between atoms: _543  and  _546
REMARK  226  A    between atoms: _546  and  _547
REMARK  227  A    between atoms: _547  and  _548
REMARK  228  A    between atoms: _550  and  _552
REMARK  229  A    between atoms: _552  and  _553
REMARK  230  A    between atoms: _556  and  _558
REMARK  231  A    between atoms: _558  and  _559
REMARK  232  A    between atoms: _558  and  _561
REMARK  233  A    between atoms: _561  and  _562
REMARK  234  A    between atoms: _564  and  _566
REMARK  235  A    between atoms: _566  and  _567
REMARK  236  A    between atoms: _566  and  _569
REMARK  237  A    between atoms: _569  and  _570
REMARK  238  A    between atoms: _573  and  _575
REMARK  239  A    between atoms: _575  and  _576
REMARK  240  A    between atoms: _575  and  _578
REMARK  241  A    between atoms: _578  and  _579
REMARK  242  A    between atoms: _584  and  _586
REMARK  243  A    between atoms: _586  and  _587
REMARK  244  A    between atoms: _586  and  _589
REMARK  245  A    between atoms: _589  and  _590
REMARK  246  A    between atoms: _595  and  _597
REMARK  247  A    between atoms: _597  and  _598
REMARK  248  A    between atoms: _597  and  _600
REMARK  249  A    between atoms: _603  and  _605
REMARK  250  A    between atoms: _605  and  _606
REMARK  251  A    between atoms: _605  and  _608
REMARK  252  A    between atoms: _608  and  _609
REMARK  253  A    between atoms: _614  and  _615
REMARK                            x       y       z     vdW  Elec       q    Type
REMARK                         _______ _______ _______ _____ _____    ______ ____
ROOT
ATOM      1  O   HOH     1      25.703   0.867   6.109  0.00  0.00    +0.000 OA
ENDROOT
TORSDOF 0
REMARK  Name = ../refined-set-2016/4dy6/4dy6_pocket.pdb
REMARK  253 active torsions:
REMARK  status: ('A' for Active; 'I' for Inactive)
REMARK    1  A    between atoms: _1  and  _3
REMARK    2  A    between atoms: _3  and  _4
REMARK    3  A    between atoms: _3  and  _6
REMARK    4  A    between atoms: _6  and  _7
REMARK    5  A    between atoms: _7  and  _8
REMARK    6  A    between atoms: _8  and  _9
REMARK    7  A    between atoms: _9  and  _10
REMARK    8  A    between atoms: _14  and  _16
REMARK    9  A    between atoms: _16  and  _17
REMARK   10  A    between atoms: _19  and  _21
REMARK   11  A    between atoms: _21  and  _22
REMARK   12  A    between atoms: _24  and  _26
REMARK   13  A    between atoms: _26  and  _27
REMARK   14  A    between atoms: _26  and  _29
REMARK   15  A    between atoms: _29  and  _30
REMARK   16  A    between atoms: _33  and  _35
REMARK   17  A    between atoms: _35  and  _36
REMARK   18  A    between atoms: _38  and  _40
REMARK   19  A    between atoms: _40  and  _41
REMARK   20  A    between atoms: _40  and  _43
REMARK   21  A    between atoms: _43  and  _44
REMARK   22  A    between atoms: _47  and  _49
REMARK   23  A    between atoms: _49  and  _50
REMARK   24  A    between atoms: _49  and  _52
REMARK   25  A    between atoms: _52  and  _53
REMARK   26  A    between atoms: _59  and  _61
REMARK   27  A    between atoms: _61  and  _62
REMARK   28  A    between atoms: _61  and  _64
REMARK   29  A    between atoms: _64  and  _65
REMARK   30  A    between atoms: _68  and  _70
REMARK   31  A    between atoms: _70  and  _71
REMARK   32  A    between atoms: _70  and  _73
REMARK   33  A    between atoms: _73  and  _74
REMARK   34  A    between atoms: _76  and  _78
REMARK   35  A    between atoms: _78  and  _79
REMARK   36  A    between atoms: _78  and  _81
REMARK   37  A    between atoms: _81  and  _82
REMARK   38  A    between atoms: _87  and  _89
REMARK   39  A    between atoms: _89  and  _90
REMARK   40  A    between atoms: _89  and  _92
REMARK   41  A    between atoms: _92  and  _93
REMARK   42  A    between atoms: _96  and  _98
REMARK   43  A    between atoms: _98  and  _99
REMARK   44  A    between atoms: _101  and  _103
REMARK   45  A    between atoms: _103  and  _104
REMARK   46  A    between atoms: _103  and  _106
REMARK   47  A    between atoms: _106  and  _107
REMARK   48  A    between atoms: _112  and  _114
REMARK   49  A    between atoms: _114  and  _115
REMARK   50  A    between atoms: _114  and  _117
REMARK   51  A    between atoms: _117  and  _118
REMARK   52  A    between atoms: _121  and  _123
REMARK   53  A    between atoms: _123  and  _124
REMARK   54  A    between atoms: _126  and  _128
REMARK   55  A    between atoms: _128  and  _129
REMARK   56  A    between atoms: _128  and  _131
REMARK   57  A    between atoms: _131  and  _132
REMARK   58  A    between atoms: _138  and  _140
REMARK   59  A    between atoms: _140  and  _141
REMARK   60  A    between atoms: _140  and  _143
REMARK   61  A    between atoms: _143  and  _144
REMARK   62  A    between atoms: _149  and  _150
REMARK   63  A    between atoms: _152  and  _154
REMARK   64  A    between atoms: _154  and  _155
REMARK   65  A    between atoms: _158  and  _160
REMARK   66  A    between atoms: _160  and  _161
REMARK   67  A    between atoms: _160  and  _163
REMARK   68  A    between atoms: _163  and  _164
REMARK   69  A    between atoms: _167  and  _169
REMARK   70  A    between atoms: _169  and  _170
REMARK   71  A    between atoms: _169  and  _172
REMARK   72  A    between atoms: _172  and  _173
REMARK   73  A    between atoms: _178  and  _180
REMARK   74  A    between atoms: _180  and  _181
REMARK   75  A    between atoms: _180  and  _183
REMARK   76  A    between atoms: _183  and  _184
REMARK   77  A    between atoms: _184  and  _185
REMARK   78  A    between atoms: _188  and  _190
REMARK   79  A    between atoms: _190  and  _191
REMARK   80  A    between atoms: _190  and  _193
REMARK   81  A    between atoms: _193  and  _194
REMARK   82  A    between atoms: _196  and  _198
REMARK   83  A    between atoms: _198  and  _199
REMARK   84  A    between atoms: _198  and  _201
REMARK   85  A    between atoms: _201  and  _202
REMARK   86  A    between atoms: _205  and  _207
REMARK   87  A    between atoms: _207  and  _208
REMARK   88  A    between atoms: _207  and  _210
REMARK   89  A    between atoms: _210  and  _211
REMARK   90  A    between atoms: _211  and  _212
REMARK   91  A    between atoms: _212  and  _213
REMARK   92  A    between atoms: _213  and  _214
REMARK   93  A    between atoms: _218  and  _220
REMARK   94  A    between atoms: _220  and  _221
REMARK   95  A    between atoms: _220  and  _223
REMARK   96  A    between atoms: _225  and  _227
REMARK   97  A    between atoms: _227  and  _228
REMARK   98  A    between atoms: _227  and  _230
REMARK   99  A    between atoms: _230  and  _231
REMARK  100  A    between atoms: _233  and  _235
REMARK  101  A    between atoms: _235  and  _236
REMARK  102  A    between atoms: _235  and  _238
REMARK  103  A    between atoms: _238  and  _239
REMARK  104  A    between atoms: _243  and  _244
REMARK  105  A    between atoms: _249  and  _251
REMARK  106  A    between atoms: _251  and  _252
REMARK  107  A    between atoms: _251  and  _254
REMARK  108  A    between atoms: _254  and  _255
REMARK  109  A    between atoms: _257  and  _259
REMARK  110  A    between atoms: _259  and  _260
REMARK  111  A    between atoms: _262  and  _264
REMARK  112  A    between atoms: _264  and  _265
REMARK  113  A    between atoms: _264  and  _267
REMARK  114  A    between atoms: _267  and  _268
REMARK  115  A    between atoms: _271  and  _273
REMARK  116  A    between atoms: _273  and  _274
REMARK  117  A    between atoms: _273  and  _276
REMARK  118  A    between atoms: _276  and  _277
REMARK  119  A    between atoms: _280  and  _282
REMARK  120  A    between atoms: _282  and  _283
REMARK  121  A    between atoms: _286  and  _288
REMARK  122  A    between atoms: _288  and  _289
REMARK  123  A    between atoms: _288  and  _291
REMARK  124  A    between atoms: _291  and  _292
REMARK  125  A    between atoms: _297  and  _298
REMARK  126  A    between atoms: _300  and  _302
REMARK  127  A    between atoms: _302  and  _303
REMARK  128  A    between atoms: _302  and  _305
REMARK  129  A    between atoms: _305  and  _306
REMARK  130  A    between atoms: _311  and  _313
REMARK  131  A    between atoms: _313  and  _314
REMARK  132  A    between atoms: _313  and  _316
REMARK  133  A    between atoms: _316  and  _317
REMARK  134  A    between atoms: _317  and  _318
REMARK  135  A    between atoms: _318  and  _319
REMARK  136  A    between atoms: _319  and  _320
REMARK  137  A    between atoms: _324  and  _326
REMARK  138  A    between atoms: _326  and  _327
REMARK  139  A    between atoms: _326  and  _329
REMARK  140  A    between atoms: _329  and  _330
REMARK  141  A    between atoms: _332  and  _334
REMARK  142  A    between atoms: _334  and  _335
REMARK  143  A    between atoms: _334  and  _337
REMARK  144  A    between atoms: _337  and  _338
REMARK  145  A    between atoms: _341  and  _343
REMARK  146  A    between atoms: _343  and  _344
REMARK  147  A    between atoms: _343  and  _346
REMARK  148  A    between atoms: _346  and  _347
REMARK  149  A    between atoms: _350  and  _352
REMARK  150  A    between atoms: _352  and  _353
REMARK  151  A    between atoms: _352  and  _355
REMARK  152  A    between atoms: _355  and  _356
REMARK  153  A    between atoms: _356  and  _357
REMARK  154  A    between atoms: _359  and  _361
REMARK  155  A    between atoms: _361  and  _362
REMARK  156  A    between atoms: _361  and  _364
REMARK  157  A    between atoms: _364  and  _365
REMARK  158  A    between atoms: _367  and  _369
REMARK  159  A    between atoms: _369  and  _370
REMARK  160  A    between atoms: _369  and  _372
REMARK  161  A    between atoms: _375  and  _377
REMARK  162  A    between atoms: _377  and  _378
REMARK  163  A    between atoms: _377  and  _380
REMARK  164  A    between atoms: _380  and  _381
REMARK  165  A    between atoms: _384  and  _386
REMARK  166  A    between atoms: _386  and  _387
REMARK  167  A    between atoms: _386  and  _389
REMARK  168  A    between atoms: _389  and  _390
REMARK  169  A    between atoms: _395  and  _397
REMARK  170  A    between atoms: _397  and  _398
REMARK  171  A    between atoms: _397  and  _400
REMARK  172  A    between atoms: _400  and  _401
REMARK  173  A    between atoms: _404  and  _406
REMARK  174  A    between atoms: _406  and  _407
REMARK  175  A    between atoms: _406  and  _409
REMARK  176  A    between atoms: _409  and  _410
REMARK  177  A    between atoms: _416  and  _418
REMARK  178  A    between atoms: _418  and  _419
REMARK  179  A    between atoms: _418  and  _421
REMARK  180  A    between atoms: _421  and  _422
REMARK  181  A    between atoms: _422  and  _423
REMARK  182  A    between atoms: _423  and  _424
REMARK  183  A    between atoms: _433  and  _435
REMARK  184  A    between atoms: _435  and  _436
REMARK  185  A    between atoms: _435  and  _438
REMARK  186  A    between atoms: _441  and  _443
REMARK  187  A    between atoms: _443  and  _444
REMARK  188  A    between atoms: _443  and  _446
REMARK  189  A    between atoms: _446  and  _447
REMARK  190  A    between atoms: _449  and  _451
REMARK  191  A    between atoms: _451  and  _452
REMARK  192  A    between atoms: _451  and  _454
REMARK  193  A    between atoms: _454  and  _455
REMARK  194  A    between atoms: _461  and  _463
REMARK  195  A    between atoms: _463  and  _464
REMARK  196  A    between atoms: _463  and  _466
REMARK  197  A    between atoms: _466  and  _467
REMARK  198  A    between atoms: _469  and  _471
REMARK  199  A    between atoms: _471  and  _472
REMARK  200  A    between atoms: _475  and  _476
REMARK  201  A    between atoms: _481  and  _483
REMARK  202  A    between atoms: _483  and  _484
REMARK  203  A    between atoms: _483  and  _486
REMARK  204  A    between atoms: _486  and  _487
REMARK  205  A    between atoms: _493  and  _495
REMARK  206  A    between atoms: _495  and  _496
REMARK  207  A    between atoms: _495  and  _498
REMARK  208  A    between atoms: _498  and  _499
REMARK  209  A    between atoms: _505  and  _507
REMARK  210  A    between atoms: _507  and  _508
REMARK  211  A    between atoms: _507  and  _510
REMARK  212  A    between atoms: _510  and  _511
REMARK  213  A    between atoms: _511  and  _512
REMARK  214  A    between atoms: _512  and  _513
REMARK  215  A    between atoms: _522  and  _524
REMARK  216  A    between atoms: _524  and  _525
REMARK  217  A    between atoms: _527  and  _529
REMARK  218  A    between atoms: _529  and  _530
REMARK  219  A    between atoms: _529  and  _532
REMARK  220  A    between atoms: _532  and  _533
REMARK  221  A    between atoms: _536  and  _538
REMARK  222  A    between atoms: _538  and  _539
REMARK  223  A    between atoms: _541  and  _543
REMARK  224  A    between atoms: _543  and  _544
REMARK  225  A    between atoms: _543  and  _546
REMARK  226  A    between atoms: _546  and  _547
REMARK  227  A    between atoms: _547  and  _548
REMARK  228  A    between atoms: _550  and  _552
REMARK  229  A    between atoms: _552  and  _553
REMARK  230  A    between atoms: _556  and  _558
REMARK  231  A    between atoms: _558  and  _559
REMARK  232  A    between atoms: _558  and  _561
REMARK  233  A    between atoms: _561  and  _562
REMARK  234  A    between atoms: _564  and  _566
REMARK  235  A    between atoms: _566  and  _567
REMARK  236  A    between atoms: _566  and  _569
REMARK  237  A    between atoms: _569  and  _570
REMARK  238  A    between atoms: _573  and  _575
REMARK  239  A    between atoms: _575  and  _576
REMARK  240  A    between atoms: _575  and  _578
REMARK  241  A    between atoms: _578  and  _579
REMARK  242  A    between atoms: _584  and  _586
REMARK  243  A    between atoms: _586  and  _587
REMARK  244  A    between atoms: _586  and  _589
REMARK  245  A    between atoms: _589  and  _590
REMARK  246  A    between atoms: _595  and  _597
REMARK  247  A    between atoms: _597  and  _598
REMARK  248  A    between atoms: _597  and  _600
REMARK  249  A    between atoms: _603  and  _605
REMARK  250  A    between atoms: _605  and  _606
REMARK  251  A    between atoms: _605  and  _608
REMARK  252  A    between atoms: _608  and  _609
REMARK  253  A    between atoms: _614  and  _615
REMARK                            x       y       z     vdW  Elec       q    Type
REMARK                         _______ _______ _______ _____ _____    ______ ____
ROOT
ATOM      1  O   HOH     1      12.164  -1.437   5.490  0.00  0.00    +0.000 OA
ENDROOT
TORSDOF 0
REMARK  Name = ../refined-set-2016/4dy6/4dy6_pocket.pdb
REMARK  253 active torsions:
REMARK  status: ('A' for Active; 'I' for Inactive)
REMARK    1  A    between atoms: _1  and  _3
REMARK    2  A    between atoms: _3  and  _4
REMARK    3  A    between atoms: _3  and  _6
REMARK    4  A    between atoms: _6  and  _7
REMARK    5  A    between atoms: _7  and  _8
REMARK    6  A    between atoms: _8  and  _9
REMARK    7  A    between atoms: _9  and  _10
REMARK    8  A    between atoms: _14  and  _16
REMARK    9  A    between atoms: _16  and  _17
REMARK   10  A    between atoms: _19  and  _21
REMARK   11  A    between atoms: _21  and  _22
REMARK   12  A    between atoms: _24  and  _26
REMARK   13  A    between atoms: _26  and  _27
REMARK   14  A    between atoms: _26  and  _29
REMARK   15  A    between atoms: _29  and  _30
REMARK   16  A    between atoms: _33  and  _35
REMARK   17  A    between atoms: _35  and  _36
REMARK   18  A    between atoms: _38  and  _40
REMARK   19  A    between atoms: _40  and  _41
REMARK   20  A    between atoms: _40  and  _43
REMARK   21  A    between atoms: _43  and  _44
REMARK   22  A    between atoms: _47  and  _49
REMARK   23  A    between atoms: _49  and  _50
REMARK   24  A    between atoms: _49  and  _52
REMARK   25  A    between atoms: _52  and  _53
REMARK   26  A    between atoms: _59  and  _61
REMARK   27  A    between atoms: _61  and  _62
REMARK   28  A    between atoms: _61  and  _64
REMARK   29  A    between atoms: _64  and  _65
REMARK   30  A    between atoms: _68  and  _70
REMARK   31  A    between atoms: _70  and  _71
REMARK   32  A    between atoms: _70  and  _73
REMARK   33  A    between atoms: _73  and  _74
REMARK   34  A    between atoms: _76  and  _78
REMARK   35  A    between atoms: _78  and  _79
REMARK   36  A    between atoms: _78  and  _81
REMARK   37  A    between atoms: _81  and  _82
REMARK   38  A    between atoms: _87  and  _89
REMARK   39  A    between atoms: _89  and  _90
REMARK   40  A    between atoms: _89  and  _92
REMARK   41  A    between atoms: _92  and  _93
REMARK   42  A    between atoms: _96  and  _98
REMARK   43  A    between atoms: _98  and  _99
REMARK   44  A    between atoms: _101  and  _103
REMARK   45  A    between atoms: _103  and  _104
REMARK   46  A    between atoms: _103  and  _106
REMARK   47  A    between atoms: _106  and  _107
REMARK   48  A    between atoms: _112  and  _114
REMARK   49  A    between atoms: _114  and  _115
REMARK   50  A    between atoms: _114  and  _117
REMARK   51  A    between atoms: _117  and  _118
REMARK   52  A    between atoms: _121  and  _123
REMARK   53  A    between atoms: _123  and  _124
REMARK   54  A    between atoms: _126  and  _128
REMARK   55  A    between atoms: _128  and  _129
REMARK   56  A    between atoms: _128  and  _131
REMARK   57  A    between atoms: _131  and  _132
REMARK   58  A    between atoms: _138  and  _140
REMARK   59  A    between atoms: _140  and  _141
REMARK   60  A    between atoms: _140  and  _143
REMARK   61  A    between atoms: _143  and  _144
REMARK   62  A    between atoms: _149  and  _150
REMARK   63  A    between atoms: _152  and  _154
REMARK   64  A    between atoms: _154  and  _155
REMARK   65  A    between atoms: _158  and  _160
REMARK   66  A    between atoms: _160  and  _161
REMARK   67  A    between atoms: _160  and  _163
REMARK   68  A    between atoms: _163  and  _164
REMARK   69  A    between atoms: _167  and  _169
REMARK   70  A    between atoms: _169  and  _170
REMARK   71  A    between atoms: _169  and  _172
REMARK   72  A    between atoms: _172  and  _173
REMARK   73  A    between atoms: _178  and  _180
REMARK   74  A    between atoms: _180  and  _181
REMARK   75  A    between atoms: _180  and  _183
REMARK   76  A    between atoms: _183  and  _184
REMARK   77  A    between atoms: _184  and  _185
REMARK   78  A    between atoms: _188  and  _190
REMARK   79  A    between atoms: _190  and  _191
REMARK   80  A    between atoms: _190  and  _193
REMARK   81  A    between atoms: _193  and  _194
REMARK   82  A    between atoms: _196  and  _198
REMARK   83  A    between atoms: _198  and  _199
REMARK   84  A    between atoms: _198  and  _201
REMARK   85  A    between atoms: _201  and  _202
REMARK   86  A    between atoms: _205  and  _207
REMARK   87  A    between atoms: _207  and  _208
REMARK   88  A    between atoms: _207  and  _210
REMARK   89  A    between atoms: _210  and  _211
REMARK   90  A    between atoms: _211  and  _212
REMARK   91  A    between atoms: _212  and  _213
REMARK   92  A    between atoms: _213  and  _214
REMARK   93  A    between atoms: _218  and  _220
REMARK   94  A    between atoms: _220  and  _221
REMARK   95  A    between atoms: _220  and  _223
REMARK   96  A    between atoms: _225  and  _227
REMARK   97  A    between atoms: _227  and  _228
REMARK   98  A    between atoms: _227  and  _230
REMARK   99  A    between atoms: _230  and  _231
REMARK  100  A    between atoms: _233  and  _235
REMARK  101  A    between atoms: _235  and  _236
REMARK  102  A    between atoms: _235  and  _238
REMARK  103  A    between atoms: _238  and  _239
REMARK  104  A    between atoms: _243  and  _244
REMARK  105  A    between atoms: _249  and  _251
REMARK  106  A    between atoms: _251  and  _252
REMARK  107  A    between atoms: _251  and  _254
REMARK  108  A    between atoms: _254  and  _255
REMARK  109  A    between atoms: _257  and  _259
REMARK  110  A    between atoms: _259  and  _260
REMARK  111  A    between atoms: _262  and  _264
REMARK  112  A    between atoms: _264  and  _265
REMARK  113  A    between atoms: _264  and  _267
REMARK  114  A    between atoms: _267  and  _268
REMARK  115  A    between atoms: _271  and  _273
REMARK  116  A    between atoms: _273  and  _274
REMARK  117  A    between atoms: _273  and  _276
REMARK  118  A    between atoms: _276  and  _277
REMARK  119  A    between atoms: _280  and  _282
REMARK  120  A    between atoms: _282  and  _283
REMARK  121  A    between atoms: _286  and  _288
REMARK  122  A    between atoms: _288  and  _289
REMARK  123  A    between atoms: _288  and  _291
REMARK  124  A    between atoms: _291  and  _292
REMARK  125  A    between atoms: _297  and  _298
REMARK  126  A    between atoms: _300  and  _302
REMARK  127  A    between atoms: _302  and  _303
REMARK  128  A    between atoms: _302  and  _305
REMARK  129  A    between atoms: _305  and  _306
REMARK  130  A    between atoms: _311  and  _313
REMARK  131  A    between atoms: _313  and  _314
REMARK  132  A    between atoms: _313  and  _316
REMARK  133  A    between atoms: _316  and  _317
REMARK  134  A    between atoms: _317  and  _318
REMARK  135  A    between atoms: _318  and  _319
REMARK  136  A    between atoms: _319  and  _320
REMARK  137  A    between atoms: _324  and  _326
REMARK  138  A    between atoms: _326  and  _327
REMARK  139  A    between atoms: _326  and  _329
REMARK  140  A    between atoms: _329  and  _330
REMARK  141  A    between atoms: _332  and  _334
REMARK  142  A    between atoms: _334  and  _335
REMARK  143  A    between atoms: _334  and  _337
REMARK  144  A    between atoms: _337  and  _338
REMARK  145  A    between atoms: _341  and  _343
REMARK  146  A    between atoms: _343  and  _344
REMARK  147  A    between atoms: _343  and  _346
REMARK  148  A    between atoms: _346  and  _347
REMARK  149  A    between atoms: _350  and  _352
REMARK  150  A    between atoms: _352  and  _353
REMARK  151  A    between atoms: _352  and  _355
REMARK  152  A    between atoms: _355  and  _356
REMARK  153  A    between atoms: _356  and  _357
REMARK  154  A    between atoms: _359  and  _361
REMARK  155  A    between atoms: _361  and  _362
REMARK  156  A    between atoms: _361  and  _364
REMARK  157  A    between atoms: _364  and  _365
REMARK  158  A    between atoms: _367  and  _369
REMARK  159  A    between atoms: _369  and  _370
REMARK  160  A    between atoms: _369  and  _372
REMARK  161  A    between atoms: _375  and  _377
REMARK  162  A    between atoms: _377  and  _378
REMARK  163  A    between atoms: _377  and  _380
REMARK  164  A    between atoms: _380  and  _381
REMARK  165  A    between atoms: _384  and  _386
REMARK  166  A    between atoms: _386  and  _387
REMARK  167  A    between atoms: _386  and  _389
REMARK  168  A    between atoms: _389  and  _390
REMARK  169  A    between atoms: _395  and  _397
REMARK  170  A    between atoms: _397  and  _398
REMARK  171  A    between atoms: _397  and  _400
REMARK  172  A    between atoms: _400  and  _401
REMARK  173  A    between atoms: _404  and  _406
REMARK  174  A    between atoms: _406  and  _407
REMARK  175  A    between atoms: _406  and  _409
REMARK  176  A    between atoms: _409  and  _410
REMARK  177  A    between atoms: _416  and  _418
REMARK  178  A    between atoms: _418  and  _419
REMARK  179  A    between atoms: _418  and  _421
REMARK  180  A    between atoms: _421  and  _422
REMARK  181  A    between atoms: _422  and  _423
REMARK  182  A    between atoms: _423  and  _424
REMARK  183  A    between atoms: _433  and  _435
REMARK  184  A    between atoms: _435  and  _436
REMARK  185  A    between atoms: _435  and  _438
REMARK  186  A    between atoms: _441  and  _443
REMARK  187  A    between atoms: _443  and  _444
REMARK  188  A    between atoms: _443  and  _446
REMARK  189  A    between atoms: _446  and  _447
REMARK  190  A    between atoms: _449  and  _451
REMARK  191  A    between atoms: _451  and  _452
REMARK  192  A    between atoms: _451  and  _454
REMARK  193  A    between atoms: _454  and  _455
REMARK  194  A    between atoms: _461  and  _463
REMARK  195  A    between atoms: _463  and  _464
REMARK  196  A    between atoms: _463  and  _466
REMARK  197  A    between atoms: _466  and  _467
REMARK  198  A    between atoms: _469  and  _471
REMARK  199  A    between atoms: _471  and  _472
REMARK  200  A    between atoms: _475  and  _476
REMARK  201  A    between atoms: _481  and  _483
REMARK  202  A    between atoms: _483  and  _484
REMARK  203  A    between atoms: _483  and  _486
REMARK  204  A    between atoms: _486  and  _487
REMARK  205  A    between atoms: _493  and  _495
REMARK  206  A    between atoms: _495  and  _496
REMARK  207  A    between atoms: _495  and  _498
REMARK  208  A    between atoms: _498  and  _499
REMARK  209  A    between atoms: _505  and  _507
REMARK  210  A    between atoms: _507  and  _508
REMARK  211  A    between atoms: _507  and  _510
REMARK  212  A    between atoms: _510  and  _511
REMARK  213  A    between atoms: _511  and  _512
REMARK  214  A    between atoms: _512  and  _513
REMARK  215  A    between atoms: _522  and  _524
REMARK  216  A    between atoms: _524  and  _525
REMARK  217  A    between atoms: _527  and  _529
REMARK  218  A    between atoms: _529  and  _530
REMARK  219  A    between atoms: _529  and  _532
REMARK  220  A    between atoms: _532  and  _533
REMARK  221  A    between atoms: _536  and  _538
REMARK  222  A    between atoms: _538  and  _539
REMARK  223  A    between atoms: _541  and  _543
REMARK  224  A    between atoms: _543  and  _544
REMARK  225  A    between atoms: _543  and  _546
REMARK  226  A    between atoms: _546  and  _547
REMARK  227  A    between atoms: _547  and  _548
REMARK  228  A    between atoms: _550  and  _552
REMARK  229  A    between atoms: _552  and  _553
REMARK  230  A    between atoms: _556  and  _558
REMARK  231  A    between atoms: _558  and  _559
REMARK  232  A    between atoms: _558  and  _561
REMARK  233  A    between atoms: _561  and  _562
REMARK  234  A    between atoms: _564  and  _566
REMARK  235  A    between atoms: _566  and  _567
REMARK  236  A    between atoms: _566  and  _569
REMARK  237  A    between atoms: _569  and  _570
REMARK  238  A    between atoms: _573  and  _575
REMARK  239  A    between atoms: _575  and  _576
REMARK  240  A    between atoms: _575  and  _578
REMARK  241  A    between atoms: _578  and  _579
REMARK  242  A    between atoms: _584  and  _586
REMARK  243  A    between atoms: _586  and  _587
REMARK  244  A    between atoms: _586  and  _589
REMARK  245  A    between atoms: _589  and  _590
REMARK  246  A    between atoms: _595  and  _597
REMARK  247  A    between atoms: _597  and  _598
REMARK  248  A    between atoms: _597  and  _600
REMARK  249  A    between atoms: _603  and  _605
REMARK  250  A    between atoms: _605  and  _606
REMARK  251  A    between atoms: _605  and  _608
REMARK  252  A    between atoms: _608  and  _609
REMARK  253  A    between atoms: _614  and  _615
REMARK                            x       y       z     vdW  Elec       q    Type
REMARK                         _______ _______ _______ _____ _____    ______ ____
ROOT
ATOM      1  O   HOH     1      14.403   4.122   5.503  0.00  0.00    +0.000 OA
ENDROOT
TORSDOF 0
REMARK  Name = ../refined-set-2016/4dy6/4dy6_pocket.pdb
REMARK  253 active torsions:
REMARK  status: ('A' for Active; 'I' for Inactive)
REMARK    1  A    between atoms: _1  and  _3
REMARK    2  A    between atoms: _3  and  _4
REMARK    3  A    between atoms: _3  and  _6
REMARK    4  A    between atoms: _6  and  _7
REMARK    5  A    between atoms: _7  and  _8
REMARK    6  A    between atoms: _8  and  _9
REMARK    7  A    between atoms: _9  and  _10
REMARK    8  A    between atoms: _14  and  _16
REMARK    9  A    between atoms: _16  and  _17
REMARK   10  A    between atoms: _19  and  _21
REMARK   11  A    between atoms: _21  and  _22
REMARK   12  A    between atoms: _24  and  _26
REMARK   13  A    between atoms: _26  and  _27
REMARK   14  A    between atoms: _26  and  _29
REMARK   15  A    between atoms: _29  and  _30
REMARK   16  A    between atoms: _33  and  _35
REMARK   17  A    between atoms: _35  and  _36
REMARK   18  A    between atoms: _38  and  _40
REMARK   19  A    between atoms: _40  and  _41
REMARK   20  A    between atoms: _40  and  _43
REMARK   21  A    between atoms: _43  and  _44
REMARK   22  A    between atoms: _47  and  _49
REMARK   23  A    between atoms: _49  and  _50
REMARK   24  A    between atoms: _49  and  _52
REMARK   25  A    between atoms: _52  and  _53
REMARK   26  A    between atoms: _59  and  _61
REMARK   27  A    between atoms: _61  and  _62
REMARK   28  A    between atoms: _61  and  _64
REMARK   29  A    between atoms: _64  and  _65
REMARK   30  A    between atoms: _68  and  _70
REMARK   31  A    between atoms: _70  and  _71
REMARK   32  A    between atoms: _70  and  _73
REMARK   33  A    between atoms: _73  and  _74
REMARK   34  A    between atoms: _76  and  _78
REMARK   35  A    between atoms: _78  and  _79
REMARK   36  A    between atoms: _78  and  _81
REMARK   37  A    between atoms: _81  and  _82
REMARK   38  A    between atoms: _87  and  _89
REMARK   39  A    between atoms: _89  and  _90
REMARK   40  A    between atoms: _89  and  _92
REMARK   41  A    between atoms: _92  and  _93
REMARK   42  A    between atoms: _96  and  _98
REMARK   43  A    between atoms: _98  and  _99
REMARK   44  A    between atoms: _101  and  _103
REMARK   45  A    between atoms: _103  and  _104
REMARK   46  A    between atoms: _103  and  _106
REMARK   47  A    between atoms: _106  and  _107
REMARK   48  A    between atoms: _112  and  _114
REMARK   49  A    between atoms: _114  and  _115
REMARK   50  A    between atoms: _114  and  _117
REMARK   51  A    between atoms: _117  and  _118
REMARK   52  A    between atoms: _121  and  _123
REMARK   53  A    between atoms: _123  and  _124
REMARK   54  A    between atoms: _126  and  _128
REMARK   55  A    between atoms: _128  and  _129
REMARK   56  A    between atoms: _128  and  _131
REMARK   57  A    between atoms: _131  and  _132
REMARK   58  A    between atoms: _138  and  _140
REMARK   59  A    between atoms: _140  and  _141
REMARK   60  A    between atoms: _140  and  _143
REMARK   61  A    between atoms: _143  and  _144
REMARK   62  A    between atoms: _149  and  _150
REMARK   63  A    between atoms: _152  and  _154
REMARK   64  A    between atoms: _154  and  _155
REMARK   65  A    between atoms: _158  and  _160
REMARK   66  A    between atoms: _160  and  _161
REMARK   67  A    between atoms: _160  and  _163
REMARK   68  A    between atoms: _163  and  _164
REMARK   69  A    between atoms: _167  and  _169
REMARK   70  A    between atoms: _169  and  _170
REMARK   71  A    between atoms: _169  and  _172
REMARK   72  A    between atoms: _172  and  _173
REMARK   73  A    between atoms: _178  and  _180
REMARK   74  A    between atoms: _180  and  _181
REMARK   75  A    between atoms: _180  and  _183
REMARK   76  A    between atoms: _183  and  _184
REMARK   77  A    between atoms: _184  and  _185
REMARK   78  A    between atoms: _188  and  _190
REMARK   79  A    between atoms: _190  and  _191
REMARK   80  A    between atoms: _190  and  _193
REMARK   81  A    between atoms: _193  and  _194
REMARK   82  A    between atoms: _196  and  _198
REMARK   83  A    between atoms: _198  and  _199
REMARK   84  A    between atoms: _198  and  _201
REMARK   85  A    between atoms: _201  and  _202
REMARK   86  A    between atoms: _205  and  _207
REMARK   87  A    between atoms: _207  and  _208
REMARK   88  A    between atoms: _207  and  _210
REMARK   89  A    between atoms: _210  and  _211
REMARK   90  A    between atoms: _211  and  _212
REMARK   91  A    between atoms: _212  and  _213
REMARK   92  A    between atoms: _213  and  _214
REMARK   93  A    between atoms: _218  and  _220
REMARK   94  A    between atoms: _220  and  _221
REMARK   95  A    between atoms: _220  and  _223
REMARK   96  A    between atoms: _225  and  _227
REMARK   97  A    between atoms: _227  and  _228
REMARK   98  A    between atoms: _227  and  _230
REMARK   99  A    between atoms: _230  and  _231
REMARK  100  A    between atoms: _233  and  _235
REMARK  101  A    between atoms: _235  and  _236
REMARK  102  A    between atoms: _235  and  _238
REMARK  103  A    between atoms: _238  and  _239
REMARK  104  A    between atoms: _243  and  _244
REMARK  105  A    between atoms: _249  and  _251
REMARK  106  A    between atoms: _251  and  _252
REMARK  107  A    between atoms: _251  and  _254
REMARK  108  A    between atoms: _254  and  _255
REMARK  109  A    between atoms: _257  and  _259
REMARK  110  A    between atoms: _259  and  _260
REMARK  111  A    between atoms: _262  and  _264
REMARK  112  A    between atoms: _264  and  _265
REMARK  113  A    between atoms: _264  and  _267
REMARK  114  A    between atoms: _267  and  _268
REMARK  115  A    between atoms: _271  and  _273
REMARK  116  A    between atoms: _273  and  _274
REMARK  117  A    between atoms: _273  and  _276
REMARK  118  A    between atoms: _276  and  _277
REMARK  119  A    between atoms: _280  and  _282
REMARK  120  A    between atoms: _282  and  _283
REMARK  121  A    between atoms: _286  and  _288
REMARK  122  A    between atoms: _288  and  _289
REMARK  123  A    between atoms: _288  and  _291
REMARK  124  A    between atoms: _291  and  _292
REMARK  125  A    between atoms: _297  and  _298
REMARK  126  A    between atoms: _300  and  _302
REMARK  127  A    between atoms: _302  and  _303
REMARK  128  A    between atoms: _302  and  _305
REMARK  129  A    between atoms: _305  and  _306
REMARK  130  A    between atoms: _311  and  _313
REMARK  131  A    between atoms: _313  and  _314
REMARK  132  A    between atoms: _313  and  _316
REMARK  133  A    between atoms: _316  and  _317
REMARK  134  A    between atoms: _317  and  _318
REMARK  135  A    between atoms: _318  and  _319
REMARK  136  A    between atoms: _319  and  _320
REMARK  137  A    between atoms: _324  and  _326
REMARK  138  A    between atoms: _326  and  _327
REMARK  139  A    between atoms: _326  and  _329
REMARK  140  A    between atoms: _329  and  _330
REMARK  141  A    between atoms: _332  and  _334
REMARK  142  A    between atoms: _334  and  _335
REMARK  143  A    between atoms: _334  and  _337
REMARK  144  A    between atoms: _337  and  _338
REMARK  145  A    between atoms: _341  and  _343
REMARK  146  A    between atoms: _343  and  _344
REMARK  147  A    between atoms: _343  and  _346
REMARK  148  A    between atoms: _346  and  _347
REMARK  149  A    between atoms: _350  and  _352
REMARK  150  A    between atoms: _352  and  _353
REMARK  151  A    between atoms: _352  and  _355
REMARK  152  A    between atoms: _355  and  _356
REMARK  153  A    between atoms: _356  and  _357
REMARK  154  A    between atoms: _359  and  _361
REMARK  155  A    between atoms: _361  and  _362
REMARK  156  A    between atoms: _361  and  _364
REMARK  157  A    between atoms: _364  and  _365
REMARK  158  A    between atoms: _367  and  _369
REMARK  159  A    between atoms: _369  and  _370
REMARK  160  A    between atoms: _369  and  _372
REMARK  161  A    between atoms: _375  and  _377
REMARK  162  A    between atoms: _377  and  _378
REMARK  163  A    between atoms: _377  and  _380
REMARK  164  A    between atoms: _380  and  _381
REMARK  165  A    between atoms: _384  and  _386
REMARK  166  A    between atoms: _386  and  _387
REMARK  167  A    between atoms: _386  and  _389
REMARK  168  A    between atoms: _389  and  _390
REMARK  169  A    between atoms: _395  and  _397
REMARK  170  A    between atoms: _397  and  _398
REMARK  171  A    between atoms: _397  and  _400
REMARK  172  A    between atoms: _400  and  _401
REMARK  173  A    between atoms: _404  and  _406
REMARK  174  A    between atoms: _406  and  _407
REMARK  175  A    between atoms: _406  and  _409
REMARK  176  A    between atoms: _409  and  _410
REMARK  177  A    between atoms: _416  and  _418
REMARK  178  A    between atoms: _418  and  _419
REMARK  179  A    between atoms: _418  and  _421
REMARK  180  A    between atoms: _421  and  _422
REMARK  181  A    between atoms: _422  and  _423
REMARK  182  A    between atoms: _423  and  _424
REMARK  183  A    between atoms: _433  and  _435
REMARK  184  A    between atoms: _435  and  _436
REMARK  185  A    between atoms: _435  and  _438
REMARK  186  A    between atoms: _441  and  _443
REMARK  187  A    between atoms: _443  and  _444
REMARK  188  A    between atoms: _443  and  _446
REMARK  189  A    between atoms: _446  and  _447
REMARK  190  A    between atoms: _449  and  _451
REMARK  191  A    between atoms: _451  and  _452
REMARK  192  A    between atoms: _451  and  _454
REMARK  193  A    between atoms: _454  and  _455
REMARK  194  A    between atoms: _461  and  _463
REMARK  195  A    between atoms: _463  and  _464
REMARK  196  A    between atoms: _463  and  _466
REMARK  197  A    between atoms: _466  and  _467
REMARK  198  A    between atoms: _469  and  _471
REMARK  199  A    between atoms: _471  and  _472
REMARK  200  A    between atoms: _475  and  _476
REMARK  201  A    between atoms: _481  and  _483
REMARK  202  A    between atoms: _483  and  _484
REMARK  203  A    between atoms: _483  and  _486
REMARK  204  A    between atoms: _486  and  _487
REMARK  205  A    between atoms: _493  and  _495
REMARK  206  A    between atoms: _495  and  _496
REMARK  207  A    between atoms: _495  and  _498
REMARK  208  A    between atoms: _498  and  _499
REMARK  209  A    between atoms: _505  and  _507
REMARK  210  A    between atoms: _507  and  _508
REMARK  211  A    between atoms: _507  and  _510
REMARK  212  A    between atoms: _510  and  _511
REMARK  213  A    between atoms: _511  and  _512
REMARK  214  A    between atoms: _512  and  _513
REMARK  215  A    between atoms: _522  and  _524
REMARK  216  A    between atoms: _524  and  _525
REMARK  217  A    between atoms: _527  and  _529
REMARK  218  A    between atoms: _529  and  _530
REMARK  219  A    between atoms: _529  and  _532
REMARK  220  A    between atoms: _532  and  _533
REMARK  221  A    between atoms: _536  and  _538
REMARK  222  A    between atoms: _538  and  _539
REMARK  223  A    between atoms: _541  and  _543
REMARK  224  A    between atoms: _543  and  _544
REMARK  225  A    between atoms: _543  and  _546
REMARK  226  A    between atoms: _546  and  _547
REMARK  227  A    between atoms: _547  and  _548
REMARK  228  A    between atoms: _550  and  _552
REMARK  229  A    between atoms: _552  and  _553
REMARK  230  A    between atoms: _556  and  _558
REMARK  231  A    between atoms: _558  and  _559
REMARK  232  A    between atoms: _558  and  _561
REMARK  233  A    between atoms: _561  and  _562
REMARK  234  A    between atoms: _564  and  _566
REMARK  235  A    between atoms: _566  and  _567
REMARK  236  A    between atoms: _566  and  _569
REMARK  237  A    between atoms: _569  and  _570
REMARK  238  A    between atoms: _573  and  _575
REMARK  239  A    between atoms: _575  and  _576
REMARK  240  A    between atoms: _575  and  _578
REMARK  241  A    between atoms: _578  and  _579
REMARK  242  A    between atoms: _584  and  _586
REMARK  243  A    between atoms: _586  and  _587
REMARK  244  A    between atoms: _586  and  _589
REMARK  245  A    between atoms: _589  and  _590
REMARK  246  A    between atoms: _595  and  _597
REMARK  247  A    between atoms: _597  and  _598
REMARK  248  A    between atoms: _597  and  _600
REMARK  249  A    between atoms: _603  and  _605
REMARK  250  A    between atoms: _605  and  _606
REMARK  251  A    between atoms: _605  and  _608
REMARK  252  A    between atoms: _608  and  _609
REMARK  253  A    between atoms: _614  and  _615
REMARK                            x       y       z     vdW  Elec       q    Type
REMARK                         _______ _______ _______ _____ _____    ______ ____
ROOT
ATOM      1  O   HOH     1      26.581   2.422   8.713  0.00  0.00    +0.000 OA
ENDROOT
TORSDOF 0
REMARK  Name = ../refined-set-2016/4dy6/4dy6_pocket.pdb
REMARK  253 active torsions:
REMARK  status: ('A' for Active; 'I' for Inactive)
REMARK    1  A    between atoms: _1  and  _3
REMARK    2  A    between atoms: _3  and  _4
REMARK    3  A    between atoms: _3  and  _6
REMARK    4  A    between atoms: _6  and  _7
REMARK    5  A    between atoms: _7  and  _8
REMARK    6  A    between atoms: _8  and  _9
REMARK    7  A    between atoms: _9  and  _10
REMARK    8  A    between atoms: _14  and  _16
REMARK    9  A    between atoms: _16  and  _17
REMARK   10  A    between atoms: _19  and  _21
REMARK   11  A    between atoms: _21  and  _22
REMARK   12  A    between atoms: _24  and  _26
REMARK   13  A    between atoms: _26  and  _27
REMARK   14  A    between atoms: _26  and  _29
REMARK   15  A    between atoms: _29  and  _30
REMARK   16  A    between atoms: _33  and  _35
REMARK   17  A    between atoms: _35  and  _36
REMARK   18  A    between atoms: _38  and  _40
REMARK   19  A    between atoms: _40  and  _41
REMARK   20  A    between atoms: _40  and  _43
REMARK   21  A    between atoms: _43  and  _44
REMARK   22  A    between atoms: _47  and  _49
REMARK   23  A    between atoms: _49  and  _50
REMARK   24  A    between atoms: _49  and  _52
REMARK   25  A    between atoms: _52  and  _53
REMARK   26  A    between atoms: _59  and  _61
REMARK   27  A    between atoms: _61  and  _62
REMARK   28  A    between atoms: _61  and  _64
REMARK   29  A    between atoms: _64  and  _65
REMARK   30  A    between atoms: _68  and  _70
REMARK   31  A    between atoms: _70  and  _71
REMARK   32  A    between atoms: _70  and  _73
REMARK   33  A    between atoms: _73  and  _74
REMARK   34  A    between atoms: _76  and  _78
REMARK   35  A    between atoms: _78  and  _79
REMARK   36  A    between atoms: _78  and  _81
REMARK   37  A    between atoms: _81  and  _82
REMARK   38  A    between atoms: _87  and  _89
REMARK   39  A    between atoms: _89  and  _90
REMARK   40  A    between atoms: _89  and  _92
REMARK   41  A    between atoms: _92  and  _93
REMARK   42  A    between atoms: _96  and  _98
REMARK   43  A    between atoms: _98  and  _99
REMARK   44  A    between atoms: _101  and  _103
REMARK   45  A    between atoms: _103  and  _104
REMARK   46  A    between atoms: _103  and  _106
REMARK   47  A    between atoms: _106  and  _107
REMARK   48  A    between atoms: _112  and  _114
REMARK   49  A    between atoms: _114  and  _115
REMARK   50  A    between atoms: _114  and  _117
REMARK   51  A    between atoms: _117  and  _118
REMARK   52  A    between atoms: _121  and  _123
REMARK   53  A    between atoms: _123  and  _124
REMARK   54  A    between atoms: _126  and  _128
REMARK   55  A    between atoms: _128  and  _129
REMARK   56  A    between atoms: _128  and  _131
REMARK   57  A    between atoms: _131  and  _132
REMARK   58  A    between atoms: _138  and  _140
REMARK   59  A    between atoms: _140  and  _141
REMARK   60  A    between atoms: _140  and  _143
REMARK   61  A    between atoms: _143  and  _144
REMARK   62  A    between atoms: _149  and  _150
REMARK   63  A    between atoms: _152  and  _154
REMARK   64  A    between atoms: _154  and  _155
REMARK   65  A    between atoms: _158  and  _160
REMARK   66  A    between atoms: _160  and  _161
REMARK   67  A    between atoms: _160  and  _163
REMARK   68  A    between atoms: _163  and  _164
REMARK   69  A    between atoms: _167  and  _169
REMARK   70  A    between atoms: _169  and  _170
REMARK   71  A    between atoms: _169  and  _172
REMARK   72  A    between atoms: _172  and  _173
REMARK   73  A    between atoms: _178  and  _180
REMARK   74  A    between atoms: _180  and  _181
REMARK   75  A    between atoms: _180  and  _183
REMARK   76  A    between atoms: _183  and  _184
REMARK   77  A    between atoms: _184  and  _185
REMARK   78  A    between atoms: _188  and  _190
REMARK   79  A    between atoms: _190  and  _191
REMARK   80  A    between atoms: _190  and  _193
REMARK   81  A    between atoms: _193  and  _194
REMARK   82  A    between atoms: _196  and  _198
REMARK   83  A    between atoms: _198  and  _199
REMARK   84  A    between atoms: _198  and  _201
REMARK   85  A    between atoms: _201  and  _202
REMARK   86  A    between atoms: _205  and  _207
REMARK   87  A    between atoms: _207  and  _208
REMARK   88  A    between atoms: _207  and  _210
REMARK   89  A    between atoms: _210  and  _211
REMARK   90  A    between atoms: _211  and  _212
REMARK   91  A    between atoms: _212  and  _213
REMARK   92  A    between atoms: _213  and  _214
REMARK   93  A    between atoms: _218  and  _220
REMARK   94  A    between atoms: _220  and  _221
REMARK   95  A    between atoms: _220  and  _223
REMARK   96  A    between atoms: _225  and  _227
REMARK   97  A    between atoms: _227  and  _228
REMARK   98  A    between atoms: _227  and  _230
REMARK   99  A    between atoms: _230  and  _231
REMARK  100  A    between atoms: _233  and  _235
REMARK  101  A    between atoms: _235  and  _236
REMARK  102  A    between atoms: _235  and  _238
REMARK  103  A    between atoms: _238  and  _239
REMARK  104  A    between atoms: _243  and  _244
REMARK  105  A    between atoms: _249  and  _251
REMARK  106  A    between atoms: _251  and  _252
REMARK  107  A    between atoms: _251  and  _254
REMARK  108  A    between atoms: _254  and  _255
REMARK  109  A    between atoms: _257  and  _259
REMARK  110  A    between atoms: _259  and  _260
REMARK  111  A    between atoms: _262  and  _264
REMARK  112  A    between atoms: _264  and  _265
REMARK  113  A    between atoms: _264  and  _267
REMARK  114  A    between atoms: _267  and  _268
REMARK  115  A    between atoms: _271  and  _273
REMARK  116  A    between atoms: _273  and  _274
REMARK  117  A    between atoms: _273  and  _276
REMARK  118  A    between atoms: _276  and  _277
REMARK  119  A    between atoms: _280  and  _282
REMARK  120  A    between atoms: _282  and  _283
REMARK  121  A    between atoms: _286  and  _288
REMARK  122  A    between atoms: _288  and  _289
REMARK  123  A    between atoms: _288  and  _291
REMARK  124  A    between atoms: _291  and  _292
REMARK  125  A    between atoms: _297  and  _298
REMARK  126  A    between atoms: _300  and  _302
REMARK  127  A    between atoms: _302  and  _303
REMARK  128  A    between atoms: _302  and  _305
REMARK  129  A    between atoms: _305  and  _306
REMARK  130  A    between atoms: _311  and  _313
REMARK  131  A    between atoms: _313  and  _314
REMARK  132  A    between atoms: _313  and  _316
REMARK  133  A    between atoms: _316  and  _317
REMARK  134  A    between atoms: _317  and  _318
REMARK  135  A    between atoms: _318  and  _319
REMARK  136  A    between atoms: _319  and  _320
REMARK  137  A    between atoms: _324  and  _326
REMARK  138  A    between atoms: _326  and  _327
REMARK  139  A    between atoms: _326  and  _329
REMARK  140  A    between atoms: _329  and  _330
REMARK  141  A    between atoms: _332  and  _334
REMARK  142  A    between atoms: _334  and  _335
REMARK  143  A    between atoms: _334  and  _337
REMARK  144  A    between atoms: _337  and  _338
REMARK  145  A    between atoms: _341  and  _343
REMARK  146  A    between atoms: _343  and  _344
REMARK  147  A    between atoms: _343  and  _346
REMARK  148  A    between atoms: _346  and  _347
REMARK  149  A    between atoms: _350  and  _352
REMARK  150  A    between atoms: _352  and  _353
REMARK  151  A    between atoms: _352  and  _355
REMARK  152  A    between atoms: _355  and  _356
REMARK  153  A    between atoms: _356  and  _357
REMARK  154  A    between atoms: _359  and  _361
REMARK  155  A    between atoms: _361  and  _362
REMARK  156  A    between atoms: _361  and  _364
REMARK  157  A    between atoms: _364  and  _365
REMARK  158  A    between atoms: _367  and  _369
REMARK  159  A    between atoms: _369  and  _370
REMARK  160  A    between atoms: _369  and  _372
REMARK  161  A    between atoms: _375  and  _377
REMARK  162  A    between atoms: _377  and  _378
REMARK  163  A    between atoms: _377  and  _380
REMARK  164  A    between atoms: _380  and  _381
REMARK  165  A    between atoms: _384  and  _386
REMARK  166  A    between atoms: _386  and  _387
REMARK  167  A    between atoms: _386  and  _389
REMARK  168  A    between atoms: _389  and  _390
REMARK  169  A    between atoms: _395  and  _397
REMARK  170  A    between atoms: _397  and  _398
REMARK  171  A    between atoms: _397  and  _400
REMARK  172  A    between atoms: _400  and  _401
REMARK  173  A    between atoms: _404  and  _406
REMARK  174  A    between atoms: _406  and  _407
REMARK  175  A    between atoms: _406  and  _409
REMARK  176  A    between atoms: _409  and  _410
REMARK  177  A    between atoms: _416  and  _418
REMARK  178  A    between atoms: _418  and  _419
REMARK  179  A    between atoms: _418  and  _421
REMARK  180  A    between atoms: _421  and  _422
REMARK  181  A    between atoms: _422  and  _423
REMARK  182  A    between atoms: _423  and  _424
REMARK  183  A    between atoms: _433  and  _435
REMARK  184  A    between atoms: _435  and  _436
REMARK  185  A    between atoms: _435  and  _438
REMARK  186  A    between atoms: _441  and  _443
REMARK  187  A    between atoms: _443  and  _444
REMARK  188  A    between atoms: _443  and  _446
REMARK  189  A    between atoms: _446  and  _447
REMARK  190  A    between atoms: _449  and  _451
REMARK  191  A    between atoms: _451  and  _452
REMARK  192  A    between atoms: _451  and  _454
REMARK  193  A    between atoms: _454  and  _455
REMARK  194  A    between atoms: _461  and  _463
REMARK  195  A    between atoms: _463  and  _464
REMARK  196  A    between atoms: _463  and  _466
REMARK  197  A    between atoms: _466  and  _467
REMARK  198  A    between atoms: _469  and  _471
REMARK  199  A    between atoms: _471  and  _472
REMARK  200  A    between atoms: _475  and  _476
REMARK  201  A    between atoms: _481  and  _483
REMARK  202  A    between atoms: _483  and  _484
REMARK  203  A    between atoms: _483  and  _486
REMARK  204  A    between atoms: _486  and  _487
REMARK  205  A    between atoms: _493  and  _495
REMARK  206  A    between atoms: _495  and  _496
REMARK  207  A    between atoms: _495  and  _498
REMARK  208  A    between atoms: _498  and  _499
REMARK  209  A    between atoms: _505  and  _507
REMARK  210  A    between atoms: _507  and  _508
REMARK  211  A    between atoms: _507  and  _510
REMARK  212  A    between atoms: _510  and  _511
REMARK  213  A    between atoms: _511  and  _512
REMARK  214  A    between atoms: _512  and  _513
REMARK  215  A    between atoms: _522  and  _524
REMARK  216  A    between atoms: _524  and  _525
REMARK  217  A    between atoms: _527  and  _529
REMARK  218  A    between atoms: _529  and  _530
REMARK  219  A    between atoms: _529  and  _532
REMARK  220  A    between atoms: _532  and  _533
REMARK  221  A    between atoms: _536  and  _538
REMARK  222  A    between atoms: _538  and  _539
REMARK  223  A    between atoms: _541  and  _543
REMARK  224  A    between atoms: _543  and  _544
REMARK  225  A    between atoms: _543  and  _546
REMARK  226  A    between atoms: _546  and  _547
REMARK  227  A    between atoms: _547  and  _548
REMARK  228  A    between atoms: _550  and  _552
REMARK  229  A    between atoms: _552  and  _553
REMARK  230  A    between atoms: _556  and  _558
REMARK  231  A    between atoms: _558  and  _559
REMARK  232  A    between atoms: _558  and  _561
REMARK  233  A    between atoms: _561  and  _562
REMARK  234  A    between atoms: _564  and  _566
REMARK  235  A    between atoms: _566  and  _567
REMARK  236  A    between atoms: _566  and  _569
REMARK  237  A    between atoms: _569  and  _570
REMARK  238  A    between atoms: _573  and  _575
REMARK  239  A    between atoms: _575  and  _576
REMARK  240  A    between atoms: _575  and  _578
REMARK  241  A    between atoms: _578  and  _579
REMARK  242  A    between atoms: _584  and  _586
REMARK  243  A    between atoms: _586  and  _587
REMARK  244  A    between atoms: _586  and  _589
REMARK  245  A    between atoms: _589  and  _590
REMARK  246  A    between atoms: _595  and  _597
REMARK  247  A    between atoms: _597  and  _598
REMARK  248  A    between atoms: _597  and  _600
REMARK  249  A    between atoms: _603  and  _605
REMARK  250  A    between atoms: _605  and  _606
REMARK  251  A    between atoms: _605  and  _608
REMARK  252  A    between atoms: _608  and  _609
REMARK  253  A    between atoms: _614  and  _615
REMARK                            x       y       z     vdW  Elec       q    Type
REMARK                         _______ _______ _______ _____ _____    ______ ____
ROOT
ATOM      1  O   HOH     1      12.330   1.272   7.007  0.00  0.00    +0.000 OA
ENDROOT
TORSDOF 0
