REMARK  Name = ../refined-set-2016/4x6p/4x6p_pocket.pdb
REMARK  250 active torsions:
REMARK  status: ('A' for Active; 'I' for Inactive)
REMARK    1  A    between atoms: _1  and  _5
REMARK    2  A    between atoms: _5  and  _6
REMARK    3  A    between atoms: _5  and  _8
REMARK    4  A    between atoms: _8  and  _9
REMARK    5  A    between atoms: _12  and  _14
REMARK    6  A    between atoms: _14  and  _15
REMARK    7  A    between atoms: _14  and  _17
REMARK    8  A    between atoms: _20  and  _22
REMARK    9  A    between atoms: _22  and  _23
REMARK   10  A    between atoms: _22  and  _25
REMARK   11  A    between atoms: _25  and  _26
REMARK   12  A    between atoms: _29  and  _31
REMARK   13  A    between atoms: _31  and  _32
REMARK   14  A    between atoms: _31  and  _34
REMARK   15  A    between atoms: _34  and  _35
REMARK   16  A    between atoms: _38  and  _40
REMARK   17  A    between atoms: _40  and  _41
REMARK   18  A    between atoms: _40  and  _43
REMARK   19  A    between atoms: _43  and  _44
REMARK   20  A    between atoms: _49  and  _51
REMARK   21  A    between atoms: _51  and  _52
REMARK   22  A    between atoms: _51  and  _54
REMARK   23  A    between atoms: _54  and  _55
REMARK   24  A    between atoms: _58  and  _60
REMARK   25  A    between atoms: _60  and  _61
REMARK   26  A    between atoms: _60  and  _63
REMARK   27  A    between atoms: _63  and  _64
REMARK   28  A    between atoms: _64  and  _65
REMARK   29  A    between atoms: _70  and  _72
REMARK   30  A    between atoms: _72  and  _73
REMARK   31  A    between atoms: _72  and  _75
REMARK   32  A    between atoms: _75  and  _76
REMARK   33  A    between atoms: _76  and  _77
REMARK   34  A    between atoms: _77  and  _78
REMARK   35  A    between atoms: _87  and  _89
REMARK   36  A    between atoms: _89  and  _90
REMARK   37  A    between atoms: _89  and  _92
REMARK   38  A    between atoms: _92  and  _93
REMARK   39  A    between atoms: _98  and  _100
REMARK   40  A    between atoms: _100  and  _101
REMARK   41  A    between atoms: _100  and  _103
REMARK   42  A    between atoms: _103  and  _104
REMARK   43  A    between atoms: _107  and  _109
REMARK   44  A    between atoms: _109  and  _110
REMARK   45  A    between atoms: _109  and  _112
REMARK   46  A    between atoms: _112  and  _113
REMARK   47  A    between atoms: _113  and  _148
REMARK   48  A    between atoms: _114  and  _116
REMARK   49  A    between atoms: _116  and  _117
REMARK   50  A    between atoms: _119  and  _121
REMARK   51  A    between atoms: _121  and  _122
REMARK   52  A    between atoms: _125  and  _127
REMARK   53  A    between atoms: _127  and  _128
REMARK   54  A    between atoms: _131  and  _133
REMARK   55  A    between atoms: _133  and  _134
REMARK   56  A    between atoms: _133  and  _136
REMARK   57  A    between atoms: _136  and  _137
REMARK   58  A    between atoms: _142  and  _144
REMARK   59  A    between atoms: _144  and  _145
REMARK   60  A    between atoms: _144  and  _147
REMARK   61  A    between atoms: _147  and  _148
REMARK   62  A    between atoms: _149  and  _151
REMARK   63  A    between atoms: _151  and  _152
REMARK   64  A    between atoms: _151  and  _154
REMARK   65  A    between atoms: _154  and  _155
REMARK   66  A    between atoms: _161  and  _163
REMARK   67  A    between atoms: _163  and  _164
REMARK   68  A    between atoms: _163  and  _166
REMARK   69  A    between atoms: _166  and  _167
REMARK   70  A    between atoms: _172  and  _173
REMARK   71  A    between atoms: _175  and  _177
REMARK   72  A    between atoms: _177  and  _178
REMARK   73  A    between atoms: _180  and  _182
REMARK   74  A    between atoms: _182  and  _183
REMARK   75  A    between atoms: _182  and  _185
REMARK   76  A    between atoms: _188  and  _190
REMARK   77  A    between atoms: _190  and  _191
REMARK   78  A    between atoms: _190  and  _193
REMARK   79  A    between atoms: _193  and  _194
REMARK   80  A    between atoms: _194  and  _195
REMARK   81  A    between atoms: _200  and  _202
REMARK   82  A    between atoms: _202  and  _203
REMARK   83  A    between atoms: _202  and  _205
REMARK   84  A    between atoms: _205  and  _206
REMARK   85  A    between atoms: _211  and  _212
REMARK   86  A    between atoms: _214  and  _216
REMARK   87  A    between atoms: _216  and  _217
REMARK   88  A    between atoms: _220  and  _222
REMARK   89  A    between atoms: _222  and  _223
REMARK   90  A    between atoms: _222  and  _225
REMARK   91  A    between atoms: _225  and  _226
REMARK   92  A    between atoms: _229  and  _231
REMARK   93  A    between atoms: _231  and  _232
REMARK   94  A    between atoms: _231  and  _234
REMARK   95  A    between atoms: _237  and  _239
REMARK   96  A    between atoms: _239  and  _240
REMARK   97  A    between atoms: _239  and  _242
REMARK   98  A    between atoms: _242  and  _243
REMARK   99  A    between atoms: _253  and  _255
REMARK  100  A    between atoms: _255  and  _256
REMARK  101  A    between atoms: _258  and  _260
REMARK  102  A    between atoms: _260  and  _261
REMARK  103  A    between atoms: _260  and  _263
REMARK  104  A    between atoms: _263  and  _264
REMARK  105  A    between atoms: _269  and  _270
REMARK  106  A    between atoms: _272  and  _274
REMARK  107  A    between atoms: _274  and  _275
REMARK  108  A    between atoms: _274  and  _277
REMARK  109  A    between atoms: _277  and  _278
REMARK  110  A    between atoms: _278  and  _279
REMARK  111  A    between atoms: _279  and  _280
REMARK  112  A    between atoms: _280  and  _281
REMARK  113  A    between atoms: _285  and  _287
REMARK  114  A    between atoms: _287  and  _288
REMARK  115  A    between atoms: _287  and  _290
REMARK  116  A    between atoms: _290  and  _291
REMARK  117  A    between atoms: _294  and  _296
REMARK  118  A    between atoms: _296  and  _297
REMARK  119  A    between atoms: _296  and  _299
REMARK  120  A    between atoms: _299  and  _300
REMARK  121  A    between atoms: _303  and  _305
REMARK  122  A    between atoms: _305  and  _306
REMARK  123  A    between atoms: _305  and  _308
REMARK  124  A    between atoms: _308  and  _309
REMARK  125  A    between atoms: _309  and  _310
REMARK  126  A    between atoms: _310  and  _311
REMARK  127  A    between atoms: _311  and  _312
REMARK  128  A    between atoms: _316  and  _318
REMARK  129  A    between atoms: _318  and  _319
REMARK  130  A    between atoms: _318  and  _321
REMARK  131  A    between atoms: _321  and  _322
REMARK  132  A    between atoms: _325  and  _327
REMARK  133  A    between atoms: _327  and  _328
REMARK  134  A    between atoms: _327  and  _330
REMARK  135  A    between atoms: _330  and  _331
REMARK  136  A    between atoms: _331  and  _332
REMARK  137  A    between atoms: _337  and  _339
REMARK  138  A    between atoms: _339  and  _340
REMARK  139  A    between atoms: _339  and  _342
REMARK  140  A    between atoms: _342  and  _343
REMARK  141  A    between atoms: _346  and  _348
REMARK  142  A    between atoms: _348  and  _349
REMARK  143  A    between atoms: _348  and  _351
REMARK  144  A    between atoms: _351  and  _352
REMARK  145  A    between atoms: _357  and  _358
REMARK  146  A    between atoms: _360  and  _362
REMARK  147  A    between atoms: _362  and  _363
REMARK  148  A    between atoms: _362  and  _365
REMARK  149  A    between atoms: _365  and  _366
REMARK  150  A    between atoms: _369  and  _371
REMARK  151  A    between atoms: _371  and  _372
REMARK  152  A    between atoms: _371  and  _374
REMARK  153  A    between atoms: _376  and  _378
REMARK  154  A    between atoms: _378  and  _379
REMARK  155  A    between atoms: _382  and  _384
REMARK  156  A    between atoms: _384  and  _385
REMARK  157  A    between atoms: _384  and  _387
REMARK  158  A    between atoms: _387  and  _388
REMARK  159  A    between atoms: _388  and  _389
REMARK  160  A    between atoms: _389  and  _390
REMARK  161  A    between atoms: _390  and  _391
REMARK  162  A    between atoms: _395  and  _397
REMARK  163  A    between atoms: _397  and  _398
REMARK  164  A    between atoms: _397  and  _400
REMARK  165  A    between atoms: _400  and  _401
REMARK  166  A    between atoms: _404  and  _406
REMARK  167  A    between atoms: _406  and  _407
REMARK  168  A    between atoms: _410  and  _412
REMARK  169  A    between atoms: _412  and  _413
REMARK  170  A    between atoms: _412  and  _415
REMARK  171  A    between atoms: _415  and  _416
REMARK  172  A    between atoms: _416  and  _530
REMARK  173  A    between atoms: _417  and  _419
REMARK  174  A    between atoms: _419  and  _420
REMARK  175  A    between atoms: _419  and  _422
REMARK  176  A    between atoms: _422  and  _423
REMARK  177  A    between atoms: _423  and  _424
REMARK  178  A    between atoms: _424  and  _425
REMARK  179  A    between atoms: _425  and  _426
REMARK  180  A    between atoms: _430  and  _432
REMARK  181  A    between atoms: _432  and  _433
REMARK  182  A    between atoms: _435  and  _437
REMARK  183  A    between atoms: _437  and  _438
REMARK  184  A    between atoms: _437  and  _440
REMARK  185  A    between atoms: _440  and  _441
REMARK  186  A    between atoms: _444  and  _446
REMARK  187  A    between atoms: _446  and  _447
REMARK  188  A    between atoms: _446  and  _449
REMARK  189  A    between atoms: _449  and  _450
REMARK  190  A    between atoms: _452  and  _454
REMARK  191  A    between atoms: _454  and  _455
REMARK  192  A    between atoms: _457  and  _459
REMARK  193  A    between atoms: _459  and  _460
REMARK  194  A    between atoms: _462  and  _464
REMARK  195  A    between atoms: _464  and  _465
REMARK  196  A    between atoms: _464  and  _467
REMARK  197  A    between atoms: _467  and  _468
REMARK  198  A    between atoms: _471  and  _473
REMARK  199  A    between atoms: _473  and  _474
REMARK  200  A    between atoms: _473  and  _476
REMARK  201  A    between atoms: _476  and  _477
REMARK  202  A    between atoms: _480  and  _482
REMARK  203  A    between atoms: _482  and  _483
REMARK  204  A    between atoms: _482  and  _485
REMARK  205  A    between atoms: _485  and  _486
REMARK  206  A    between atoms: _488  and  _490
REMARK  207  A    between atoms: _490  and  _491
REMARK  208  A    between atoms: _490  and  _493
REMARK  209  A    between atoms: _493  and  _494
REMARK  210  A    between atoms: _504  and  _506
REMARK  211  A    between atoms: _506  and  _507
REMARK  212  A    between atoms: _509  and  _511
REMARK  213  A    between atoms: _511  and  _512
REMARK  214  A    between atoms: _511  and  _514
REMARK  215  A    between atoms: _514  and  _515
REMARK  216  A    between atoms: _515  and  _516
REMARK  217  A    between atoms: _519  and  _521
REMARK  218  A    between atoms: _521  and  _522
REMARK  219  A    between atoms: _524  and  _526
REMARK  220  A    between atoms: _526  and  _527
REMARK  221  A    between atoms: _526  and  _529
REMARK  222  A    between atoms: _529  and  _530
REMARK  223  A    between atoms: _531  and  _533
REMARK  224  A    between atoms: _533  and  _534
REMARK  225  A    between atoms: _537  and  _539
REMARK  226  A    between atoms: _539  and  _540
REMARK  227  A    between atoms: _539  and  _542
REMARK  228  A    between atoms: _542  and  _543
REMARK  229  A    between atoms: _543  and  _544
REMARK  230  A    between atoms: _549  and  _551
REMARK  231  A    between atoms: _551  and  _552
REMARK  232  A    between atoms: _551  and  _554
REMARK  233  A    between atoms: _554  and  _555
REMARK  234  A    between atoms: _555  and  _556
REMARK  235  A    between atoms: _556  and  _557
REMARK  236  A    between atoms: _567  and  _568
REMARK  237  A    between atoms: _573  and  _575
REMARK  238  A    between atoms: _575  and  _576
REMARK  239  A    between atoms: _578  and  _580
REMARK  240  A    between atoms: _580  and  _581
REMARK  241  A    between atoms: _580  and  _583
REMARK  242  A    between atoms: _586  and  _588
REMARK  243  A    between atoms: _588  and  _589
REMARK  244  A    between atoms: _588  and  _591
REMARK  245  A    between atoms: _591  and  _592
REMARK  246  A    between atoms: _597  and  _598
REMARK  247  A    between atoms: _600  and  _602
REMARK  248  A    between atoms: _602  and  _603
REMARK  249  A    between atoms: _602  and  _605
REMARK  250  A    between atoms: _605  and  _606
REMARK                            x       y       z     vdW  Elec       q    Type
REMARK                         _______ _______ _______ _____ _____    ______ ____
ROOT
ATOM      1  C   ILE A   1      18.188   9.172 -35.656  0.00  0.00    +0.202 C 
ATOM      2  O   ILE A   1      17.591   8.120 -35.424  0.00  0.00    -0.277 OA
ATOM      3  N   VAL A   2      19.175   9.275 -36.560  0.00  0.00    -0.301 N 
ATOM      4  H   VAL A   2      19.602  10.212 -36.706  0.00  0.00    +0.150 HD
ENDROOT
BRANCH   1   5
ATOM      5  CA  ILE A   1      17.822  10.433 -34.850  0.00  0.00    +0.013 C 
BRANCH   5   6
ATOM      6  N   ILE A   1      16.393  10.696 -35.000  0.00  0.00    +0.387 N 
ATOM      7  H1  ILE A   1      16.140  11.547 -34.458  0.00  0.00    -0.089 HD
ATOM      8  H2  ILE A   1      15.853   9.882 -34.643  0.00  0.00    -0.089 HD
ATOM      9  H3  ILE A   1      16.173  10.846 -36.005  0.00  0.00    -0.089 HD
ENDBRANCH   5   6
BRANCH   5  10
ATOM     10  CB  ILE A   1      18.190  10.236 -33.345  0.00  0.00    -0.011 C 
ATOM     11  CG2 ILE A   1      19.695   9.860 -33.183  0.00  0.00    -0.002 C 
BRANCH  10  12
ATOM     12  CG1 ILE A   1      17.811  11.454 -32.438  0.00  0.00    -0.002 C 
ATOM     13  CD1 ILE A   1      18.606  12.776 -32.671  0.00  0.00    -0.000 C 
ENDBRANCH  10  12
ENDBRANCH   5  10
ENDBRANCH   1   5
BRANCH   3  14
ATOM     14  CA  VAL A   2      19.696   8.150 -37.361  0.00  0.00    +0.137 C 
BRANCH  14  15
ATOM     15  CB  VAL A   2      20.201   8.590 -38.777  0.00  0.00    +0.026 C 
ATOM     16  CG2 VAL A   2      19.164   9.432 -39.503  0.00  0.00    +0.002 C 
ATOM     17  CG1 VAL A   2      20.598   7.372 -39.638  0.00  0.00    +0.002 C 
ENDBRANCH  14  15
BRANCH  14  18
ATOM     18  C   VAL A   2      20.834   7.482 -36.581  0.00  0.00    +0.227 C 
ATOM     19  O   VAL A   2      21.685   8.177 -36.043  0.00  0.00    -0.286 OA
ENDBRANCH  14  18
ENDBRANCH   3  14
TORSDOF 7
REMARK  Name = ../refined-set-2016/4x6p/4x6p_pocket.pdb
REMARK  250 active torsions:
REMARK  status: ('A' for Active; 'I' for Inactive)
REMARK    1  A    between atoms: _1  and  _5
REMARK    2  A    between atoms: _5  and  _6
REMARK    3  A    between atoms: _5  and  _8
REMARK    4  A    between atoms: _8  and  _9
REMARK    5  A    between atoms: _12  and  _14
REMARK    6  A    between atoms: _14  and  _15
REMARK    7  A    between atoms: _14  and  _17
REMARK    8  A    between atoms: _20  and  _22
REMARK    9  A    between atoms: _22  and  _23
REMARK   10  A    between atoms: _22  and  _25
REMARK   11  A    between atoms: _25  and  _26
REMARK   12  A    between atoms: _29  and  _31
REMARK   13  A    between atoms: _31  and  _32
REMARK   14  A    between atoms: _31  and  _34
REMARK   15  A    between atoms: _34  and  _35
REMARK   16  A    between atoms: _38  and  _40
REMARK   17  A    between atoms: _40  and  _41
REMARK   18  A    between atoms: _40  and  _43
REMARK   19  A    between atoms: _43  and  _44
REMARK   20  A    between atoms: _49  and  _51
REMARK   21  A    between atoms: _51  and  _52
REMARK   22  A    between atoms: _51  and  _54
REMARK   23  A    between atoms: _54  and  _55
REMARK   24  A    between atoms: _58  and  _60
REMARK   25  A    between atoms: _60  and  _61
REMARK   26  A    between atoms: _60  and  _63
REMARK   27  A    between atoms: _63  and  _64
REMARK   28  A    between atoms: _64  and  _65
REMARK   29  A    between atoms: _70  and  _72
REMARK   30  A    between atoms: _72  and  _73
REMARK   31  A    between atoms: _72  and  _75
REMARK   32  A    between atoms: _75  and  _76
REMARK   33  A    between atoms: _76  and  _77
REMARK   34  A    between atoms: _77  and  _78
REMARK   35  A    between atoms: _87  and  _89
REMARK   36  A    between atoms: _89  and  _90
REMARK   37  A    between atoms: _89  and  _92
REMARK   38  A    between atoms: _92  and  _93
REMARK   39  A    between atoms: _98  and  _100
REMARK   40  A    between atoms: _100  and  _101
REMARK   41  A    between atoms: _100  and  _103
REMARK   42  A    between atoms: _103  and  _104
REMARK   43  A    between atoms: _107  and  _109
REMARK   44  A    between atoms: _109  and  _110
REMARK   45  A    between atoms: _109  and  _112
REMARK   46  A    between atoms: _112  and  _113
REMARK   47  A    between atoms: _113  and  _148
REMARK   48  A    between atoms: _114  and  _116
REMARK   49  A    between atoms: _116  and  _117
REMARK   50  A    between atoms: _119  and  _121
REMARK   51  A    between atoms: _121  and  _122
REMARK   52  A    between atoms: _125  and  _127
REMARK   53  A    between atoms: _127  and  _128
REMARK   54  A    between atoms: _131  and  _133
REMARK   55  A    between atoms: _133  and  _134
REMARK   56  A    between atoms: _133  and  _136
REMARK   57  A    between atoms: _136  and  _137
REMARK   58  A    between atoms: _142  and  _144
REMARK   59  A    between atoms: _144  and  _145
REMARK   60  A    between atoms: _144  and  _147
REMARK   61  A    between atoms: _147  and  _148
REMARK   62  A    between atoms: _149  and  _151
REMARK   63  A    between atoms: _151  and  _152
REMARK   64  A    between atoms: _151  and  _154
REMARK   65  A    between atoms: _154  and  _155
REMARK   66  A    between atoms: _161  and  _163
REMARK   67  A    between atoms: _163  and  _164
REMARK   68  A    between atoms: _163  and  _166
REMARK   69  A    between atoms: _166  and  _167
REMARK   70  A    between atoms: _172  and  _173
REMARK   71  A    between atoms: _175  and  _177
REMARK   72  A    between atoms: _177  and  _178
REMARK   73  A    between atoms: _180  and  _182
REMARK   74  A    between atoms: _182  and  _183
REMARK   75  A    between atoms: _182  and  _185
REMARK   76  A    between atoms: _188  and  _190
REMARK   77  A    between atoms: _190  and  _191
REMARK   78  A    between atoms: _190  and  _193
REMARK   79  A    between atoms: _193  and  _194
REMARK   80  A    between atoms: _194  and  _195
REMARK   81  A    between atoms: _200  and  _202
REMARK   82  A    between atoms: _202  and  _203
REMARK   83  A    between atoms: _202  and  _205
REMARK   84  A    between atoms: _205  and  _206
REMARK   85  A    between atoms: _211  and  _212
REMARK   86  A    between atoms: _214  and  _216
REMARK   87  A    between atoms: _216  and  _217
REMARK   88  A    between atoms: _220  and  _222
REMARK   89  A    between atoms: _222  and  _223
REMARK   90  A    between atoms: _222  and  _225
REMARK   91  A    between atoms: _225  and  _226
REMARK   92  A    between atoms: _229  and  _231
REMARK   93  A    between atoms: _231  and  _232
REMARK   94  A    between atoms: _231  and  _234
REMARK   95  A    between atoms: _237  and  _239
REMARK   96  A    between atoms: _239  and  _240
REMARK   97  A    between atoms: _239  and  _242
REMARK   98  A    between atoms: _242  and  _243
REMARK   99  A    between atoms: _253  and  _255
REMARK  100  A    between atoms: _255  and  _256
REMARK  101  A    between atoms: _258  and  _260
REMARK  102  A    between atoms: _260  and  _261
REMARK  103  A    between atoms: _260  and  _263
REMARK  104  A    between atoms: _263  and  _264
REMARK  105  A    between atoms: _269  and  _270
REMARK  106  A    between atoms: _272  and  _274
REMARK  107  A    between atoms: _274  and  _275
REMARK  108  A    between atoms: _274  and  _277
REMARK  109  A    between atoms: _277  and  _278
REMARK  110  A    between atoms: _278  and  _279
REMARK  111  A    between atoms: _279  and  _280
REMARK  112  A    between atoms: _280  and  _281
REMARK  113  A    between atoms: _285  and  _287
REMARK  114  A    between atoms: _287  and  _288
REMARK  115  A    between atoms: _287  and  _290
REMARK  116  A    between atoms: _290  and  _291
REMARK  117  A    between atoms: _294  and  _296
REMARK  118  A    between atoms: _296  and  _297
REMARK  119  A    between atoms: _296  and  _299
REMARK  120  A    between atoms: _299  and  _300
REMARK  121  A    between atoms: _303  and  _305
REMARK  122  A    between atoms: _305  and  _306
REMARK  123  A    between atoms: _305  and  _308
REMARK  124  A    between atoms: _308  and  _309
REMARK  125  A    between atoms: _309  and  _310
REMARK  126  A    between atoms: _310  and  _311
REMARK  127  A    between atoms: _311  and  _312
REMARK  128  A    between atoms: _316  and  _318
REMARK  129  A    between atoms: _318  and  _319
REMARK  130  A    between atoms: _318  and  _321
REMARK  131  A    between atoms: _321  and  _322
REMARK  132  A    between atoms: _325  and  _327
REMARK  133  A    between atoms: _327  and  _328
REMARK  134  A    between atoms: _327  and  _330
REMARK  135  A    between atoms: _330  and  _331
REMARK  136  A    between atoms: _331  and  _332
REMARK  137  A    between atoms: _337  and  _339
REMARK  138  A    between atoms: _339  and  _340
REMARK  139  A    between atoms: _339  and  _342
REMARK  140  A    between atoms: _342  and  _343
REMARK  141  A    between atoms: _346  and  _348
REMARK  142  A    between atoms: _348  and  _349
REMARK  143  A    between atoms: _348  and  _351
REMARK  144  A    between atoms: _351  and  _352
REMARK  145  A    between atoms: _357  and  _358
REMARK  146  A    between atoms: _360  and  _362
REMARK  147  A    between atoms: _362  and  _363
REMARK  148  A    between atoms: _362  and  _365
REMARK  149  A    between atoms: _365  and  _366
REMARK  150  A    between atoms: _369  and  _371
REMARK  151  A    between atoms: _371  and  _372
REMARK  152  A    between atoms: _371  and  _374
REMARK  153  A    between atoms: _376  and  _378
REMARK  154  A    between atoms: _378  and  _379
REMARK  155  A    between atoms: _382  and  _384
REMARK  156  A    between atoms: _384  and  _385
REMARK  157  A    between atoms: _384  and  _387
REMARK  158  A    between atoms: _387  and  _388
REMARK  159  A    between atoms: _388  and  _389
REMARK  160  A    between atoms: _389  and  _390
REMARK  161  A    between atoms: _390  and  _391
REMARK  162  A    between atoms: _395  and  _397
REMARK  163  A    between atoms: _397  and  _398
REMARK  164  A    between atoms: _397  and  _400
REMARK  165  A    between atoms: _400  and  _401
REMARK  166  A    between atoms: _404  and  _406
REMARK  167  A    between atoms: _406  and  _407
REMARK  168  A    between atoms: _410  and  _412
REMARK  169  A    between atoms: _412  and  _413
REMARK  170  A    between atoms: _412  and  _415
REMARK  171  A    between atoms: _415  and  _416
REMARK  172  A    between atoms: _416  and  _530
REMARK  173  A    between atoms: _417  and  _419
REMARK  174  A    between atoms: _419  and  _420
REMARK  175  A    between atoms: _419  and  _422
REMARK  176  A    between atoms: _422  and  _423
REMARK  177  A    between atoms: _423  and  _424
REMARK  178  A    between atoms: _424  and  _425
REMARK  179  A    between atoms: _425  and  _426
REMARK  180  A    between atoms: _430  and  _432
REMARK  181  A    between atoms: _432  and  _433
REMARK  182  A    between atoms: _435  and  _437
REMARK  183  A    between atoms: _437  and  _438
REMARK  184  A    between atoms: _437  and  _440
REMARK  185  A    between atoms: _440  and  _441
REMARK  186  A    between atoms: _444  and  _446
REMARK  187  A    between atoms: _446  and  _447
REMARK  188  A    between atoms: _446  and  _449
REMARK  189  A    between atoms: _449  and  _450
REMARK  190  A    between atoms: _452  and  _454
REMARK  191  A    between atoms: _454  and  _455
REMARK  192  A    between atoms: _457  and  _459
REMARK  193  A    between atoms: _459  and  _460
REMARK  194  A    between atoms: _462  and  _464
REMARK  195  A    between atoms: _464  and  _465
REMARK  196  A    between atoms: _464  and  _467
REMARK  197  A    between atoms: _467  and  _468
REMARK  198  A    between atoms: _471  and  _473
REMARK  199  A    between atoms: _473  and  _474
REMARK  200  A    between atoms: _473  and  _476
REMARK  201  A    between atoms: _476  and  _477
REMARK  202  A    between atoms: _480  and  _482
REMARK  203  A    between atoms: _482  and  _483
REMARK  204  A    between atoms: _482  and  _485
REMARK  205  A    between atoms: _485  and  _486
REMARK  206  A    between atoms: _488  and  _490
REMARK  207  A    between atoms: _490  and  _491
REMARK  208  A    between atoms: _490  and  _493
REMARK  209  A    between atoms: _493  and  _494
REMARK  210  A    between atoms: _504  and  _506
REMARK  211  A    between atoms: _506  and  _507
REMARK  212  A    between atoms: _509  and  _511
REMARK  213  A    between atoms: _511  and  _512
REMARK  214  A    between atoms: _511  and  _514
REMARK  215  A    between atoms: _514  and  _515
REMARK  216  A    between atoms: _515  and  _516
REMARK  217  A    between atoms: _519  and  _521
REMARK  218  A    between atoms: _521  and  _522
REMARK  219  A    between atoms: _524  and  _526
REMARK  220  A    between atoms: _526  and  _527
REMARK  221  A    between atoms: _526  and  _529
REMARK  222  A    between atoms: _529  and  _530
REMARK  223  A    between atoms: _531  and  _533
REMARK  224  A    between atoms: _533  and  _534
REMARK  225  A    between atoms: _537  and  _539
REMARK  226  A    between atoms: _539  and  _540
REMARK  227  A    between atoms: _539  and  _542
REMARK  228  A    between atoms: _542  and  _543
REMARK  229  A    between atoms: _543  and  _544
REMARK  230  A    between atoms: _549  and  _551
REMARK  231  A    between atoms: _551  and  _552
REMARK  232  A    between atoms: _551  and  _554
REMARK  233  A    between atoms: _554  and  _555
REMARK  234  A    between atoms: _555  and  _556
REMARK  235  A    between atoms: _556  and  _557
REMARK  236  A    between atoms: _567  and  _568
REMARK  237  A    between atoms: _573  and  _575
REMARK  238  A    between atoms: _575  and  _576
REMARK  239  A    between atoms: _578  and  _580
REMARK  240  A    between atoms: _580  and  _581
REMARK  241  A    between atoms: _580  and  _583
REMARK  242  A    between atoms: _586  and  _588
REMARK  243  A    between atoms: _588  and  _589
REMARK  244  A    between atoms: _588  and  _591
REMARK  245  A    between atoms: _591  and  _592
REMARK  246  A    between atoms: _597  and  _598
REMARK  247  A    between atoms: _600  and  _602
REMARK  248  A    between atoms: _602  and  _603
REMARK  249  A    between atoms: _602  and  _605
REMARK  250  A    between atoms: _605  and  _606
REMARK                            x       y       z     vdW  Elec       q    Type
REMARK                         _______ _______ _______ _____ _____    ______ ____
ROOT
ATOM      1  C   LEU A   2       5.615  20.160 -29.300  0.00  0.00    +0.241 C 
ATOM      2  N   HIS A   3       4.357  20.199 -28.855  0.00  0.00    -0.297 N 
ATOM      3  H   HIS A   3       4.175  20.571 -27.901  0.00  0.00    +0.150 HD
ATOM      4  O   LEU A   2       5.926  19.688 -30.386  0.00  0.00    -0.273 OA
ENDROOT
BRANCH   2   5
ATOM      5  CA  HIS A   3       3.227  19.739 -29.658  0.00  0.00    +0.155 C 
BRANCH   5   6
ATOM      6  C   HIS A   3       2.365  20.901 -30.150  0.00  0.00    +0.241 C 
ATOM      7  O   HIS A   3       2.223  21.905 -29.456  0.00  0.00    -0.273 OA
ATOM      8  N   THR A   4       1.770  20.744 -31.354  0.00  0.00    -0.296 N 
ATOM      9  H   THR A   4       2.069  19.942 -31.945  0.00  0.00    +0.150 HD
BRANCH   8  10
ATOM     10  CA  THR A   4       0.728  21.635 -31.878  0.00  0.00    +0.164 C 
BRANCH  10  11
ATOM     11  CB  THR A   4       0.901  21.976 -33.360  0.00  0.00    +0.136 C 
ATOM     12  CG2 THR A   4       2.005  22.929 -33.585  0.00  0.00    +0.034 C 
BRANCH  11  13
ATOM     13  OG1 THR A   4       1.151  20.781 -34.118  0.00  0.00    -0.382 OA
ATOM     14  HG1 THR A   4       0.387  20.160 -34.015  0.00  0.00    +0.210 HD
ENDBRANCH  11  13
ENDBRANCH  10  11
BRANCH  10  15
ATOM     15  C   THR A   4      -0.599  20.886 -31.615  0.00  0.00    +0.229 C 
ATOM     16  O   THR A   4      -0.587  19.654 -31.608  0.00  0.00    -0.286 OA
ENDBRANCH  10  15
ENDBRANCH   8  10
ENDBRANCH   5   6
BRANCH   5  17
ATOM     17  CB  HIS A   3       2.300  18.831 -28.801  0.00  0.00    +0.076 C 
BRANCH  17  18
ATOM     18  CG  HIS A   3       2.809  17.444 -28.576  0.00  0.00    +0.082 A 
ATOM     19  ND1 HIS A   3       1.930  16.384 -28.380  0.00  0.00    -0.227 NA
ATOM     20  CE1 HIS A   3       2.684  15.313 -28.243  0.00  0.00    +0.199 A 
ATOM     21  NE2 HIS A   3       3.983  15.612 -28.334  0.00  0.00    -0.221 NA
ATOM     22  CD2 HIS A   3       4.078  16.977 -28.528  0.00  0.00    +0.115 A 
ENDBRANCH  17  18
ENDBRANCH   5  17
ENDBRANCH   2   5
BRANCH   1  23
ATOM     23  CA  LEU A   2       6.699  20.667 -28.361  0.00  0.00    +0.149 C 
BRANCH  23  26
ATOM     24  C   THR A   1       7.505  18.793 -27.026  0.00  0.00    +0.241 C 
ATOM     25  O   THR A   1       6.679  18.986 -26.102  0.00  0.00    -0.274 OA
ATOM     26  N   LEU A   2       7.610  19.566 -28.099  0.00  0.00    -0.297 N 
ATOM     27  H   LEU A   2       8.374  19.377 -28.779  0.00  0.00    +0.150 HD
BRANCH  24  28
ATOM     28  CA  THR A   1       8.543  17.681 -26.942  0.00  0.00    +0.172 C 
BRANCH  28  29
ATOM     29  CB  THR A   1       7.964  16.240 -27.116  0.00  0.00    +0.135 C 
ATOM     30  CG2 THR A   1       7.147  15.765 -25.926  0.00  0.00    +0.034 C 
BRANCH  29  31
ATOM     31  OG1 THR A   1       7.132  16.233 -28.284  0.00  0.00    -0.383 OA
ATOM     32  HG1 THR A   1       7.673  16.482 -29.075  0.00  0.00    +0.210 HD
ENDBRANCH  29  31
ENDBRANCH  28  29
BRANCH  28  33
ATOM     33  N   THR A   1       9.223  17.903 -25.679  0.00  0.00    -0.236 NA
ATOM     34  H   THR A   1       8.686  17.754 -24.801  0.00  0.00    +0.142 HD
ENDBRANCH  28  33
ENDBRANCH  24  28
ENDBRANCH  23  26
BRANCH  23  35
ATOM     35  CB  LEU A   2       7.463  21.854 -28.983  0.00  0.00    +0.029 C 
BRANCH  35  36
ATOM     36  CG  LEU A   2       6.608  23.019 -29.497  0.00  0.00    +0.002 C 
ATOM     37  CD2 LEU A   2       5.953  23.790 -28.346  0.00  0.00    +0.000 C 
ATOM     38  CD1 LEU A   2       7.426  23.933 -30.374  0.00  0.00    +0.000 C 
ENDBRANCH  35  36
ENDBRANCH  23  35
ENDBRANCH   1  23
TORSDOF 16
REMARK  Name = ../refined-set-2016/4x6p/4x6p_pocket.pdb
REMARK  250 active torsions:
REMARK  status: ('A' for Active; 'I' for Inactive)
REMARK    1  A    between atoms: _1  and  _5
REMARK    2  A    between atoms: _5  and  _6
REMARK    3  A    between atoms: _5  and  _8
REMARK    4  A    between atoms: _8  and  _9
REMARK    5  A    between atoms: _12  and  _14
REMARK    6  A    between atoms: _14  and  _15
REMARK    7  A    between atoms: _14  and  _17
REMARK    8  A    between atoms: _20  and  _22
REMARK    9  A    between atoms: _22  and  _23
REMARK   10  A    between atoms: _22  and  _25
REMARK   11  A    between atoms: _25  and  _26
REMARK   12  A    between atoms: _29  and  _31
REMARK   13  A    between atoms: _31  and  _32
REMARK   14  A    between atoms: _31  and  _34
REMARK   15  A    between atoms: _34  and  _35
REMARK   16  A    between atoms: _38  and  _40
REMARK   17  A    between atoms: _40  and  _41
REMARK   18  A    between atoms: _40  and  _43
REMARK   19  A    between atoms: _43  and  _44
REMARK   20  A    between atoms: _49  and  _51
REMARK   21  A    between atoms: _51  and  _52
REMARK   22  A    between atoms: _51  and  _54
REMARK   23  A    between atoms: _54  and  _55
REMARK   24  A    between atoms: _58  and  _60
REMARK   25  A    between atoms: _60  and  _61
REMARK   26  A    between atoms: _60  and  _63
REMARK   27  A    between atoms: _63  and  _64
REMARK   28  A    between atoms: _64  and  _65
REMARK   29  A    between atoms: _70  and  _72
REMARK   30  A    between atoms: _72  and  _73
REMARK   31  A    between atoms: _72  and  _75
REMARK   32  A    between atoms: _75  and  _76
REMARK   33  A    between atoms: _76  and  _77
REMARK   34  A    between atoms: _77  and  _78
REMARK   35  A    between atoms: _87  and  _89
REMARK   36  A    between atoms: _89  and  _90
REMARK   37  A    between atoms: _89  and  _92
REMARK   38  A    between atoms: _92  and  _93
REMARK   39  A    between atoms: _98  and  _100
REMARK   40  A    between atoms: _100  and  _101
REMARK   41  A    between atoms: _100  and  _103
REMARK   42  A    between atoms: _103  and  _104
REMARK   43  A    between atoms: _107  and  _109
REMARK   44  A    between atoms: _109  and  _110
REMARK   45  A    between atoms: _109  and  _112
REMARK   46  A    between atoms: _112  and  _113
REMARK   47  A    between atoms: _113  and  _148
REMARK   48  A    between atoms: _114  and  _116
REMARK   49  A    between atoms: _116  and  _117
REMARK   50  A    between atoms: _119  and  _121
REMARK   51  A    between atoms: _121  and  _122
REMARK   52  A    between atoms: _125  and  _127
REMARK   53  A    between atoms: _127  and  _128
REMARK   54  A    between atoms: _131  and  _133
REMARK   55  A    between atoms: _133  and  _134
REMARK   56  A    between atoms: _133  and  _136
REMARK   57  A    between atoms: _136  and  _137
REMARK   58  A    between atoms: _142  and  _144
REMARK   59  A    between atoms: _144  and  _145
REMARK   60  A    between atoms: _144  and  _147
REMARK   61  A    between atoms: _147  and  _148
REMARK   62  A    between atoms: _149  and  _151
REMARK   63  A    between atoms: _151  and  _152
REMARK   64  A    between atoms: _151  and  _154
REMARK   65  A    between atoms: _154  and  _155
REMARK   66  A    between atoms: _161  and  _163
REMARK   67  A    between atoms: _163  and  _164
REMARK   68  A    between atoms: _163  and  _166
REMARK   69  A    between atoms: _166  and  _167
REMARK   70  A    between atoms: _172  and  _173
REMARK   71  A    between atoms: _175  and  _177
REMARK   72  A    between atoms: _177  and  _178
REMARK   73  A    between atoms: _180  and  _182
REMARK   74  A    between atoms: _182  and  _183
REMARK   75  A    between atoms: _182  and  _185
REMARK   76  A    between atoms: _188  and  _190
REMARK   77  A    between atoms: _190  and  _191
REMARK   78  A    between atoms: _190  and  _193
REMARK   79  A    between atoms: _193  and  _194
REMARK   80  A    between atoms: _194  and  _195
REMARK   81  A    between atoms: _200  and  _202
REMARK   82  A    between atoms: _202  and  _203
REMARK   83  A    between atoms: _202  and  _205
REMARK   84  A    between atoms: _205  and  _206
REMARK   85  A    between atoms: _211  and  _212
REMARK   86  A    between atoms: _214  and  _216
REMARK   87  A    between atoms: _216  and  _217
REMARK   88  A    between atoms: _220  and  _222
REMARK   89  A    between atoms: _222  and  _223
REMARK   90  A    between atoms: _222  and  _225
REMARK   91  A    between atoms: _225  and  _226
REMARK   92  A    between atoms: _229  and  _231
REMARK   93  A    between atoms: _231  and  _232
REMARK   94  A    between atoms: _231  and  _234
REMARK   95  A    between atoms: _237  and  _239
REMARK   96  A    between atoms: _239  and  _240
REMARK   97  A    between atoms: _239  and  _242
REMARK   98  A    between atoms: _242  and  _243
REMARK   99  A    between atoms: _253  and  _255
REMARK  100  A    between atoms: _255  and  _256
REMARK  101  A    between atoms: _258  and  _260
REMARK  102  A    between atoms: _260  and  _261
REMARK  103  A    between atoms: _260  and  _263
REMARK  104  A    between atoms: _263  and  _264
REMARK  105  A    between atoms: _269  and  _270
REMARK  106  A    between atoms: _272  and  _274
REMARK  107  A    between atoms: _274  and  _275
REMARK  108  A    between atoms: _274  and  _277
REMARK  109  A    between atoms: _277  and  _278
REMARK  110  A    between atoms: _278  and  _279
REMARK  111  A    between atoms: _279  and  _280
REMARK  112  A    between atoms: _280  and  _281
REMARK  113  A    between atoms: _285  and  _287
REMARK  114  A    between atoms: _287  and  _288
REMARK  115  A    between atoms: _287  and  _290
REMARK  116  A    between atoms: _290  and  _291
REMARK  117  A    between atoms: _294  and  _296
REMARK  118  A    between atoms: _296  and  _297
REMARK  119  A    between atoms: _296  and  _299
REMARK  120  A    between atoms: _299  and  _300
REMARK  121  A    between atoms: _303  and  _305
REMARK  122  A    between atoms: _305  and  _306
REMARK  123  A    between atoms: _305  and  _308
REMARK  124  A    between atoms: _308  and  _309
REMARK  125  A    between atoms: _309  and  _310
REMARK  126  A    between atoms: _310  and  _311
REMARK  127  A    between atoms: _311  and  _312
REMARK  128  A    between atoms: _316  and  _318
REMARK  129  A    between atoms: _318  and  _319
REMARK  130  A    between atoms: _318  and  _321
REMARK  131  A    between atoms: _321  and  _322
REMARK  132  A    between atoms: _325  and  _327
REMARK  133  A    between atoms: _327  and  _328
REMARK  134  A    between atoms: _327  and  _330
REMARK  135  A    between atoms: _330  and  _331
REMARK  136  A    between atoms: _331  and  _332
REMARK  137  A    between atoms: _337  and  _339
REMARK  138  A    between atoms: _339  and  _340
REMARK  139  A    between atoms: _339  and  _342
REMARK  140  A    between atoms: _342  and  _343
REMARK  141  A    between atoms: _346  and  _348
REMARK  142  A    between atoms: _348  and  _349
REMARK  143  A    between atoms: _348  and  _351
REMARK  144  A    between atoms: _351  and  _352
REMARK  145  A    between atoms: _357  and  _358
REMARK  146  A    between atoms: _360  and  _362
REMARK  147  A    between atoms: _362  and  _363
REMARK  148  A    between atoms: _362  and  _365
REMARK  149  A    between atoms: _365  and  _366
REMARK  150  A    between atoms: _369  and  _371
REMARK  151  A    between atoms: _371  and  _372
REMARK  152  A    between atoms: _371  and  _374
REMARK  153  A    between atoms: _376  and  _378
REMARK  154  A    between atoms: _378  and  _379
REMARK  155  A    between atoms: _382  and  _384
REMARK  156  A    between atoms: _384  and  _385
REMARK  157  A    between atoms: _384  and  _387
REMARK  158  A    between atoms: _387  and  _388
REMARK  159  A    between atoms: _388  and  _389
REMARK  160  A    between atoms: _389  and  _390
REMARK  161  A    between atoms: _390  and  _391
REMARK  162  A    between atoms: _395  and  _397
REMARK  163  A    between atoms: _397  and  _398
REMARK  164  A    between atoms: _397  and  _400
REMARK  165  A    between atoms: _400  and  _401
REMARK  166  A    between atoms: _404  and  _406
REMARK  167  A    between atoms: _406  and  _407
REMARK  168  A    between atoms: _410  and  _412
REMARK  169  A    between atoms: _412  and  _413
REMARK  170  A    between atoms: _412  and  _415
REMARK  171  A    between atoms: _415  and  _416
REMARK  172  A    between atoms: _416  and  _530
REMARK  173  A    between atoms: _417  and  _419
REMARK  174  A    between atoms: _419  and  _420
REMARK  175  A    between atoms: _419  and  _422
REMARK  176  A    between atoms: _422  and  _423
REMARK  177  A    between atoms: _423  and  _424
REMARK  178  A    between atoms: _424  and  _425
REMARK  179  A    between atoms: _425  and  _426
REMARK  180  A    between atoms: _430  and  _432
REMARK  181  A    between atoms: _432  and  _433
REMARK  182  A    between atoms: _435  and  _437
REMARK  183  A    between atoms: _437  and  _438
REMARK  184  A    between atoms: _437  and  _440
REMARK  185  A    between atoms: _440  and  _441
REMARK  186  A    between atoms: _444  and  _446
REMARK  187  A    between atoms: _446  and  _447
REMARK  188  A    between atoms: _446  and  _449
REMARK  189  A    between atoms: _449  and  _450
REMARK  190  A    between atoms: _452  and  _454
REMARK  191  A    between atoms: _454  and  _455
REMARK  192  A    between atoms: _457  and  _459
REMARK  193  A    between atoms: _459  and  _460
REMARK  194  A    between atoms: _462  and  _464
REMARK  195  A    between atoms: _464  and  _465
REMARK  196  A    between atoms: _464  and  _467
REMARK  197  A    between atoms: _467  and  _468
REMARK  198  A    between atoms: _471  and  _473
REMARK  199  A    between atoms: _473  and  _474
REMARK  200  A    between atoms: _473  and  _476
REMARK  201  A    between atoms: _476  and  _477
REMARK  202  A    between atoms: _480  and  _482
REMARK  203  A    between atoms: _482  and  _483
REMARK  204  A    between atoms: _482  and  _485
REMARK  205  A    between atoms: _485  and  _486
REMARK  206  A    between atoms: _488  and  _490
REMARK  207  A    between atoms: _490  and  _491
REMARK  208  A    between atoms: _490  and  _493
REMARK  209  A    between atoms: _493  and  _494
REMARK  210  A    between atoms: _504  and  _506
REMARK  211  A    between atoms: _506  and  _507
REMARK  212  A    between atoms: _509  and  _511
REMARK  213  A    between atoms: _511  and  _512
REMARK  214  A    between atoms: _511  and  _514
REMARK  215  A    between atoms: _514  and  _515
REMARK  216  A    between atoms: _515  and  _516
REMARK  217  A    between atoms: _519  and  _521
REMARK  218  A    between atoms: _521  and  _522
REMARK  219  A    between atoms: _524  and  _526
REMARK  220  A    between atoms: _526  and  _527
REMARK  221  A    between atoms: _526  and  _529
REMARK  222  A    between atoms: _529  and  _530
REMARK  223  A    between atoms: _531  and  _533
REMARK  224  A    between atoms: _533  and  _534
REMARK  225  A    between atoms: _537  and  _539
REMARK  226  A    between atoms: _539  and  _540
REMARK  227  A    between atoms: _539  and  _542
REMARK  228  A    between atoms: _542  and  _543
REMARK  229  A    between atoms: _543  and  _544
REMARK  230  A    between atoms: _549  and  _551
REMARK  231  A    between atoms: _551  and  _552
REMARK  232  A    between atoms: _551  and  _554
REMARK  233  A    between atoms: _554  and  _555
REMARK  234  A    between atoms: _555  and  _556
REMARK  235  A    between atoms: _556  and  _557
REMARK  236  A    between atoms: _567  and  _568
REMARK  237  A    between atoms: _573  and  _575
REMARK  238  A    between atoms: _575  and  _576
REMARK  239  A    between atoms: _578  and  _580
REMARK  240  A    between atoms: _580  and  _581
REMARK  241  A    between atoms: _580  and  _583
REMARK  242  A    between atoms: _586  and  _588
REMARK  243  A    between atoms: _588  and  _589
REMARK  244  A    between atoms: _588  and  _591
REMARK  245  A    between atoms: _591  and  _592
REMARK  246  A    between atoms: _597  and  _598
REMARK  247  A    between atoms: _600  and  _602
REMARK  248  A    between atoms: _602  and  _603
REMARK  249  A    between atoms: _602  and  _605
REMARK  250  A    between atoms: _605  and  _606
REMARK                            x       y       z     vdW  Elec       q    Type
REMARK                         _______ _______ _______ _____ _____    ______ ____
ROOT
ATOM      1  CA  CYS A   4       9.607  25.395 -35.912  0.00  0.00    +0.160 C 
ENDROOT
BRANCH   1   2
ATOM      2  C   CYS A   4       8.286  26.142 -36.012  0.00  0.00    +0.242 C 
ATOM      3  O   CYS A   4       7.237  25.510 -36.044  0.00  0.00    -0.273 OA
ATOM      4  N   PHE A   5       8.346  27.475 -36.092  0.00  0.00    -0.297 N 
ATOM      5  H   PHE A   5       9.271  27.944 -36.174  0.00  0.00    +0.150 HD
BRANCH   4   6
ATOM      6  CA  PHE A   5       7.133  28.277 -36.066  0.00  0.00    +0.153 C 
BRANCH   6   7
ATOM      7  C   PHE A   5       6.684  28.747 -37.457  0.00  0.00    +0.241 C 
ATOM      8  O   PHE A   5       5.819  29.611 -37.564  0.00  0.00    -0.273 OA
ATOM      9  N   TYR A   6       7.203  28.109 -38.509  0.00  0.00    -0.297 N 
ATOM     10  H   TYR A   6       7.873  27.332 -38.337  0.00  0.00    +0.150 HD
BRANCH   9  11
ATOM     11  CA  TYR A   6       6.872  28.454 -39.896  0.00  0.00    +0.153 C 
BRANCH  11  12
ATOM     12  C   TYR A   6       5.348  28.388 -40.172  0.00  0.00    +0.241 C 
ATOM     13  N   GLY A   7       4.688  27.355 -39.658  0.00  0.00    -0.295 N 
ATOM     14  H   GLY A   7       5.224  26.622 -39.151  0.00  0.00    +0.150 HD
ATOM     15  O   TYR A   6       4.801  29.295 -40.797  0.00  0.00    -0.273 OA
BRANCH  13  16
ATOM     16  CA  GLY A   7       3.239  27.208 -39.777  0.00  0.00    +0.176 C 
BRANCH  16  17
ATOM     17  C   GLY A   7       2.491  27.561 -38.496  0.00  0.00    +0.243 C 
ATOM     18  N   VAL A   8       3.035  28.508 -37.693  0.00  0.00    -0.298 N 
ATOM     19  H   VAL A   8       3.909  28.975 -38.009  0.00  0.00    +0.150 HD
ATOM     20  O   GLY A   7       1.429  26.986 -38.220  0.00  0.00    -0.273 OA
BRANCH  18  21
ATOM     21  CA  VAL A   8       2.462  28.914 -36.401  0.00  0.00    +0.137 C 
BRANCH  21  22
ATOM     22  CB  VAL A   8       3.297  28.365 -35.201  0.00  0.00    +0.026 C 
ATOM     23  CG2 VAL A   8       2.776  28.858 -33.847  0.00  0.00    +0.002 C 
ATOM     24  CG1 VAL A   8       3.352  26.841 -35.228  0.00  0.00    +0.002 C 
ENDBRANCH  21  22
BRANCH  21  25
ATOM     25  C   VAL A   8       2.245  30.436 -36.336  0.00  0.00    +0.227 C 
ATOM     26  O   VAL A   8       3.207  31.209 -36.352  0.00  0.00    -0.286 OA
ENDBRANCH  21  25
ENDBRANCH  18  21
ENDBRANCH  16  17
ENDBRANCH  13  16
ENDBRANCH  11  12
BRANCH  11  27
ATOM     27  CB  TYR A   6       7.646  27.552 -40.857  0.00  0.00    +0.055 C 
BRANCH  27  28
ATOM     28  CG  TYR A   6       7.451  27.874 -42.324  0.00  0.00    -0.020 A 
ATOM     29  CD2 TYR A   6       7.936  29.060 -42.866  0.00  0.00    -0.001 A 
ATOM     30  CE2 TYR A   6       7.803  29.341 -44.223  0.00  0.00    +0.036 A 
ATOM     31  CZ  TYR A   6       7.186  28.425 -45.060  0.00  0.00    +0.134 A 
ATOM     32  CE1 TYR A   6       6.717  27.229 -44.548  0.00  0.00    +0.036 A 
ATOM     33  CD1 TYR A   6       6.860  26.955 -43.188  0.00  0.00    -0.001 A 
BRANCH  31  34
ATOM     34  OH  TYR A   6       7.037  28.696 -46.400  0.00  0.00    -0.506 OA
ATOM     35  HH  TYR A   6       7.423  29.585 -46.601  0.00  0.00    +0.292 HD
ENDBRANCH  31  34
ENDBRANCH  27  28
ENDBRANCH  11  27
ENDBRANCH   9  11
ENDBRANCH   6   7
BRANCH   6  36
ATOM     36  CB  PHE A   5       7.328  29.427 -35.049  0.00  0.00    +0.055 C 
BRANCH  36  37
ATOM     37  CG  PHE A   5       7.750  28.799 -33.737  0.00  0.00    -0.020 A 
ATOM     38  CD2 PHE A   5       6.856  28.032 -32.998  0.00  0.00    -0.004 A 
ATOM     39  CE2 PHE A   5       7.271  27.355 -31.854  0.00  0.00    -0.000 A 
ATOM     40  CZ  PHE A   5       8.589  27.419 -31.451  0.00  0.00    -0.000 A 
ATOM     41  CE1 PHE A   5       9.487  28.178 -32.157  0.00  0.00    -0.000 A 
ATOM     42  CD1 PHE A   5       9.080  28.844 -33.319  0.00  0.00    -0.004 A 
ENDBRANCH  36  37
ENDBRANCH   6  36
ENDBRANCH   4   6
ENDBRANCH   1   2
BRANCH   1  43
ATOM     43  N   CYS A   4      10.744  26.179 -36.414  0.00  0.00    -0.296 N 
ATOM     44  H   CYS A   4      11.514  26.413 -35.755  0.00  0.00    +0.150 HD
ATOM     45  C   HIS A   3      10.836  26.610 -37.692  0.00  0.00    +0.241 C 
ATOM     46  O   HIS A   3       9.981  26.367 -38.545  0.00  0.00    -0.273 OA
BRANCH  45  47
ATOM     47  CA  HIS A   3      12.042  27.454 -38.082  0.00  0.00    +0.155 C 
BRANCH  47  48
ATOM     48  N   HIS A   3      12.743  28.076 -36.942  0.00  0.00    -0.297 N 
ATOM     49  C   ALA A   2      12.139  29.008 -36.167  0.00  0.00    +0.241 C 
ATOM     50  O   ALA A   2      10.950  29.336 -36.322  0.00  0.00    -0.273 OA
ATOM     51  H   HIS A   3      13.721  27.793 -36.729  0.00  0.00    +0.150 HD
BRANCH  49  52
ATOM     52  CA  ALA A   2      12.979  29.637 -35.025  0.00  0.00    +0.149 C 
ATOM     53  CB  ALA A   2      13.773  30.831 -35.558  0.00  0.00    +0.031 C 
BRANCH  52  54
ATOM     54  N   ALA A   2      13.915  28.643 -34.451  0.00  0.00    -0.297 N 
ATOM     55  C   ALA A   1      13.510  27.542 -33.839  0.00  0.00    +0.238 C 
ATOM     56  O   ALA A   1      12.312  27.263 -33.654  0.00  0.00    -0.274 OA
ATOM     57  H   ALA A   2      14.937  28.818 -34.533  0.00  0.00    +0.150 HD
BRANCH  55  58
ATOM     58  CA  ALA A   1      14.622  26.583 -33.378  0.00  0.00    +0.145 C 
ATOM     59  CB  ALA A   1      14.812  25.478 -34.410  0.00  0.00    +0.028 C 
BRANCH  58  60
ATOM     60  N   ALA A   1      14.275  26.023 -32.066  0.00  0.00    -0.238 NA
ATOM     61  H   ALA A   1      13.707  25.153 -32.022  0.00  0.00    +0.142 HD
ENDBRANCH  58  60
ENDBRANCH  55  58
ENDBRANCH  52  54
ENDBRANCH  49  52
ENDBRANCH  47  48
BRANCH  47  62
ATOM     62  CB  HIS A   3      12.992  26.652 -39.002  0.00  0.00    +0.076 C 
BRANCH  62  63
ATOM     63  CG  HIS A   3      13.405  25.323 -38.467  0.00  0.00    +0.082 A 
ATOM     64  ND1 HIS A   3      14.721  25.064 -38.142  0.00  0.00    -0.227 NA
ATOM     65  CE1 HIS A   3      14.747  23.809 -37.735  0.00  0.00    +0.199 A 
ATOM     66  NE2 HIS A   3      13.528  23.264 -37.754  0.00  0.00    -0.221 NA
ATOM     67  CD2 HIS A   3      12.664  24.215 -38.226  0.00  0.00    +0.115 A 
ENDBRANCH  62  63
ENDBRANCH  47  62
ENDBRANCH  45  47
ENDBRANCH   1  43
BRANCH   1  68
ATOM     68  CB  CYS A   4       9.878  24.941 -34.480  0.00  0.00    +0.098 C 
BRANCH  68  69
ATOM     69  SG  CYS A   4      11.222  23.735 -34.370  0.00  0.00    -0.080 S 
BRANCH  69  70
ATOM     70  SG  PHE A   5      10.241  21.971 -34.513  0.00  0.00    -0.080 S 
BRANCH  70  71
ATOM     71  CB  PHE A   5      10.036  21.507 -32.776  0.00  0.00    +0.098 C 
BRANCH  71  72
ATOM     72  CA  PHE A   5       9.766  20.015 -32.536  0.00  0.00    +0.160 C 
BRANCH  72  73
ATOM     73  C   PHE A   5      10.262  19.618 -31.166  0.00  0.00    +0.242 C 
ATOM     74  O   PHE A   5       9.482  19.468 -30.212  0.00  0.00    -0.273 OA
ATOM     75  N   TYR A   6      11.579  19.542 -31.057  0.00  0.00    -0.296 N 
ATOM     76  H   TYR A   6      12.157  19.619 -31.918  0.00  0.00    +0.150 HD
BRANCH  75  77
ATOM     77  CA  TYR A   6      12.247  19.355 -29.781  0.00  0.00    +0.163 C 
BRANCH  77  78
ATOM     78  C   TYR A   6      12.496  20.740 -29.200  0.00  0.00    +0.229 C 
ATOM     79  O   TYR A   6      12.272  21.766 -29.866  0.00  0.00    -0.286 OA
ENDBRANCH  77  78
ENDBRANCH  75  77
ENDBRANCH  72  73
BRANCH  72  81
ATOM     80  C   CYS A   4       7.746  19.538 -33.896  0.00  0.00    +0.241 C 
ATOM     81  N   PHE A   5       8.332  19.748 -32.684  0.00  0.00    -0.296 N 
ATOM     82  H   PHE A   5       7.739  19.718 -31.830  0.00  0.00    +0.150 HD
ATOM     83  O   CYS A   4       8.387  19.434 -34.947  0.00  0.00    -0.273 OA
BRANCH  80  84
ATOM     84  CA  CYS A   4       6.214  19.436 -33.909  0.00  0.00    +0.149 C 
BRANCH  84  86
ATOM     85  C   HIS A   3       5.177  17.351 -33.195  0.00  0.00    +0.241 C 
ATOM     86  N   CYS A   4       5.767  18.506 -32.907  0.00  0.00    -0.297 N 
ATOM     87  H   CYS A   4       5.913  18.750 -31.907  0.00  0.00    +0.150 HD
ATOM     88  O   HIS A   3       4.927  17.000 -34.350  0.00  0.00    -0.273 OA
BRANCH  85  89
ATOM     89  CA  HIS A   3       4.803  16.468 -31.989  0.00  0.00    +0.155 C 
BRANCH  89  92
ATOM     90  C   ALA A   2       2.380  16.754 -32.329  0.00  0.00    +0.241 C 
ATOM     91  O   ALA A   2       2.417  17.978 -32.207  0.00  0.00    -0.273 OA
ATOM     92  N   HIS A   3       3.455  15.962 -32.244  0.00  0.00    -0.297 N 
ATOM     93  H   HIS A   3       3.326  14.937 -32.365  0.00  0.00    +0.150 HD
BRANCH  90  94
ATOM     94  CA  ALA A   2       1.106  16.086 -32.798  0.00  0.00    +0.149 C 
BRANCH  94  97
ATOM     95  C   ALA A   1      -1.193  16.147 -31.935  0.00  0.00    +0.238 C 
ATOM     96  O   ALA A   1      -1.322  14.934 -32.071  0.00  0.00    -0.274 OA
ATOM     97  N   ALA A   2      -0.058  16.785 -32.248  0.00  0.00    -0.297 N 
ATOM     98  H   ALA A   2      -0.001  17.812 -32.095  0.00  0.00    +0.150 HD
BRANCH  95  99
ATOM     99  CA  ALA A   1      -2.329  17.003 -31.378  0.00  0.00    +0.145 C 
BRANCH  99 100
ATOM    100  N   ALA A   1      -3.572  16.857 -32.137  0.00  0.00    -0.238 NA
ATOM    101  H   ALA A   1      -4.320  16.229 -31.780  0.00  0.00    +0.142 HD
ENDBRANCH  99 100
BRANCH  99 102
ATOM    102  CB  ALA A   1      -2.565  16.742 -29.888  0.00  0.00    +0.036 C 
BRANCH 102 103
ATOM    103  CG  ALA A   1      -1.348  17.147 -29.050  0.00  0.00    +0.087 C 
BRANCH 103 104
ATOM    104  CD  ALA A   1      -1.596  17.054 -27.571  0.00  0.00    +0.219 C 
ATOM    105  NE2 ALA A   1      -0.564  16.695 -26.838  0.00  0.00    -0.329 N 
ATOM    106 HE21 ALA A   1      -0.651  16.654 -25.802  0.00  0.00    +0.145 HD
ATOM    107 HE22 ALA A   1       0.339  16.452 -27.294  0.00  0.00    +0.145 HD
ATOM    108  OE1 ALA A   1      -2.686  17.350 -27.062  0.00  0.00    -0.275 OA
ENDBRANCH 103 104
ENDBRANCH 102 103
ENDBRANCH  99 102
ENDBRANCH  95  99
ENDBRANCH  94  97
BRANCH  94 109
ATOM    109  CB  ALA A   2       1.133  16.169 -34.341  0.00  0.00    +0.033 C 
BRANCH 109 110
ATOM    110  CG  ALA A   2      -0.085  15.611 -35.054  0.00  0.00    +0.045 C 
BRANCH 110 111
ATOM    111  CD  ALA A   2       0.038  15.776 -36.561  0.00  0.00    +0.174 C 
BRANCH 111 112
ATOM    112  NE  ALA A   2      -1.048  15.155 -37.316  0.00  0.00    -0.265 N 
ATOM    113  CZ  ALA A   2      -1.226  13.848 -37.513  0.00  0.00    +0.342 C 
ATOM    114  NH2 ALA A   2      -0.343  12.970 -37.044  0.00  0.00    -0.292 N 
ATOM    115 HH21 ALA A   2       0.492  13.302 -36.520  0.00  0.00    +0.255 HD
ATOM    116 HH22 ALA A   2      -0.488  11.952 -37.201  0.00  0.00    +0.255 HD
ATOM    117  NH1 ALA A   2      -2.278  13.412 -38.198  0.00  0.00    -0.292 N 
ATOM    118 HH11 ALA A   2      -2.413  12.392 -38.350  0.00  0.00    +0.255 HD
ATOM    119 HH12 ALA A   2      -2.966  14.091 -38.582  0.00  0.00    +0.255 HD
ATOM    120  HE  ALA A   2      -1.750  15.794 -37.741  0.00  0.00    +0.259 HD
ENDBRANCH 111 112
ENDBRANCH 110 111
ENDBRANCH 109 110
ENDBRANCH  94 109
ENDBRANCH  90  94
ENDBRANCH  89  92
BRANCH  89 121
ATOM    121  CB  HIS A   3       5.772  15.272 -31.898  0.00  0.00    +0.076 C 
BRANCH 121 122
ATOM    122  CG  HIS A   3       7.223  15.644 -31.990  0.00  0.00    +0.082 A 
ATOM    123  ND1 HIS A   3       7.938  16.010 -30.872  0.00  0.00    -0.227 NA
ATOM    124  CE1 HIS A   3       9.164  16.270 -31.292  0.00  0.00    +0.199 A 
ATOM    125  NE2 HIS A   3       9.286  16.064 -32.609  0.00  0.00    -0.221 NA
ATOM    126  CD2 HIS A   3       8.047  15.669 -33.071  0.00  0.00    +0.115 A 
ENDBRANCH 121 122
ENDBRANCH  89 121
ENDBRANCH  85  89
ENDBRANCH  84  86
BRANCH  84 127
ATOM    127  CB  CYS A   4       5.603  20.820 -33.588  0.00  0.00    +0.029 C 
BRANCH 127 128
ATOM    128  CG  CYS A   4       6.139  22.022 -34.405  0.00  0.00    +0.002 C 
ATOM    129  CD2 CYS A   4       5.599  23.342 -33.866  0.00  0.00    +0.000 C 
ATOM    130  CD1 CYS A   4       5.826  21.872 -35.895  0.00  0.00    +0.000 C 
ENDBRANCH 127 128
ENDBRANCH  84 127
ENDBRANCH  80  84
ENDBRANCH  72  81
ENDBRANCH  71  72
ENDBRANCH  70  71
ENDBRANCH  69  70
ENDBRANCH  68  69
ENDBRANCH   1  68
TORSDOF 52
REMARK  Name = ../refined-set-2016/4x6p/4x6p_pocket.pdb
REMARK  250 active torsions:
REMARK  status: ('A' for Active; 'I' for Inactive)
REMARK    1  A    between atoms: _1  and  _5
REMARK    2  A    between atoms: _5  and  _6
REMARK    3  A    between atoms: _5  and  _8
REMARK    4  A    between atoms: _8  and  _9
REMARK    5  A    between atoms: _12  and  _14
REMARK    6  A    between atoms: _14  and  _15
REMARK    7  A    between atoms: _14  and  _17
REMARK    8  A    between atoms: _20  and  _22
REMARK    9  A    between atoms: _22  and  _23
REMARK   10  A    between atoms: _22  and  _25
REMARK   11  A    between atoms: _25  and  _26
REMARK   12  A    between atoms: _29  and  _31
REMARK   13  A    between atoms: _31  and  _32
REMARK   14  A    between atoms: _31  and  _34
REMARK   15  A    between atoms: _34  and  _35
REMARK   16  A    between atoms: _38  and  _40
REMARK   17  A    between atoms: _40  and  _41
REMARK   18  A    between atoms: _40  and  _43
REMARK   19  A    between atoms: _43  and  _44
REMARK   20  A    between atoms: _49  and  _51
REMARK   21  A    between atoms: _51  and  _52
REMARK   22  A    between atoms: _51  and  _54
REMARK   23  A    between atoms: _54  and  _55
REMARK   24  A    between atoms: _58  and  _60
REMARK   25  A    between atoms: _60  and  _61
REMARK   26  A    between atoms: _60  and  _63
REMARK   27  A    between atoms: _63  and  _64
REMARK   28  A    between atoms: _64  and  _65
REMARK   29  A    between atoms: _70  and  _72
REMARK   30  A    between atoms: _72  and  _73
REMARK   31  A    between atoms: _72  and  _75
REMARK   32  A    between atoms: _75  and  _76
REMARK   33  A    between atoms: _76  and  _77
REMARK   34  A    between atoms: _77  and  _78
REMARK   35  A    between atoms: _87  and  _89
REMARK   36  A    between atoms: _89  and  _90
REMARK   37  A    between atoms: _89  and  _92
REMARK   38  A    between atoms: _92  and  _93
REMARK   39  A    between atoms: _98  and  _100
REMARK   40  A    between atoms: _100  and  _101
REMARK   41  A    between atoms: _100  and  _103
REMARK   42  A    between atoms: _103  and  _104
REMARK   43  A    between atoms: _107  and  _109
REMARK   44  A    between atoms: _109  and  _110
REMARK   45  A    between atoms: _109  and  _112
REMARK   46  A    between atoms: _112  and  _113
REMARK   47  A    between atoms: _113  and  _148
REMARK   48  A    between atoms: _114  and  _116
REMARK   49  A    between atoms: _116  and  _117
REMARK   50  A    between atoms: _119  and  _121
REMARK   51  A    between atoms: _121  and  _122
REMARK   52  A    between atoms: _125  and  _127
REMARK   53  A    between atoms: _127  and  _128
REMARK   54  A    between atoms: _131  and  _133
REMARK   55  A    between atoms: _133  and  _134
REMARK   56  A    between atoms: _133  and  _136
REMARK   57  A    between atoms: _136  and  _137
REMARK   58  A    between atoms: _142  and  _144
REMARK   59  A    between atoms: _144  and  _145
REMARK   60  A    between atoms: _144  and  _147
REMARK   61  A    between atoms: _147  and  _148
REMARK   62  A    between atoms: _149  and  _151
REMARK   63  A    between atoms: _151  and  _152
REMARK   64  A    between atoms: _151  and  _154
REMARK   65  A    between atoms: _154  and  _155
REMARK   66  A    between atoms: _161  and  _163
REMARK   67  A    between atoms: _163  and  _164
REMARK   68  A    between atoms: _163  and  _166
REMARK   69  A    between atoms: _166  and  _167
REMARK   70  A    between atoms: _172  and  _173
REMARK   71  A    between atoms: _175  and  _177
REMARK   72  A    between atoms: _177  and  _178
REMARK   73  A    between atoms: _180  and  _182
REMARK   74  A    between atoms: _182  and  _183
REMARK   75  A    between atoms: _182  and  _185
REMARK   76  A    between atoms: _188  and  _190
REMARK   77  A    between atoms: _190  and  _191
REMARK   78  A    between atoms: _190  and  _193
REMARK   79  A    between atoms: _193  and  _194
REMARK   80  A    between atoms: _194  and  _195
REMARK   81  A    between atoms: _200  and  _202
REMARK   82  A    between atoms: _202  and  _203
REMARK   83  A    between atoms: _202  and  _205
REMARK   84  A    between atoms: _205  and  _206
REMARK   85  A    between atoms: _211  and  _212
REMARK   86  A    between atoms: _214  and  _216
REMARK   87  A    between atoms: _216  and  _217
REMARK   88  A    between atoms: _220  and  _222
REMARK   89  A    between atoms: _222  and  _223
REMARK   90  A    between atoms: _222  and  _225
REMARK   91  A    between atoms: _225  and  _226
REMARK   92  A    between atoms: _229  and  _231
REMARK   93  A    between atoms: _231  and  _232
REMARK   94  A    between atoms: _231  and  _234
REMARK   95  A    between atoms: _237  and  _239
REMARK   96  A    between atoms: _239  and  _240
REMARK   97  A    between atoms: _239  and  _242
REMARK   98  A    between atoms: _242  and  _243
REMARK   99  A    between atoms: _253  and  _255
REMARK  100  A    between atoms: _255  and  _256
REMARK  101  A    between atoms: _258  and  _260
REMARK  102  A    between atoms: _260  and  _261
REMARK  103  A    between atoms: _260  and  _263
REMARK  104  A    between atoms: _263  and  _264
REMARK  105  A    between atoms: _269  and  _270
REMARK  106  A    between atoms: _272  and  _274
REMARK  107  A    between atoms: _274  and  _275
REMARK  108  A    between atoms: _274  and  _277
REMARK  109  A    between atoms: _277  and  _278
REMARK  110  A    between atoms: _278  and  _279
REMARK  111  A    between atoms: _279  and  _280
REMARK  112  A    between atoms: _280  and  _281
REMARK  113  A    between atoms: _285  and  _287
REMARK  114  A    between atoms: _287  and  _288
REMARK  115  A    between atoms: _287  and  _290
REMARK  116  A    between atoms: _290  and  _291
REMARK  117  A    between atoms: _294  and  _296
REMARK  118  A    between atoms: _296  and  _297
REMARK  119  A    between atoms: _296  and  _299
REMARK  120  A    between atoms: _299  and  _300
REMARK  121  A    between atoms: _303  and  _305
REMARK  122  A    between atoms: _305  and  _306
REMARK  123  A    between atoms: _305  and  _308
REMARK  124  A    between atoms: _308  and  _309
REMARK  125  A    between atoms: _309  and  _310
REMARK  126  A    between atoms: _310  and  _311
REMARK  127  A    between atoms: _311  and  _312
REMARK  128  A    between atoms: _316  and  _318
REMARK  129  A    between atoms: _318  and  _319
REMARK  130  A    between atoms: _318  and  _321
REMARK  131  A    between atoms: _321  and  _322
REMARK  132  A    between atoms: _325  and  _327
REMARK  133  A    between atoms: _327  and  _328
REMARK  134  A    between atoms: _327  and  _330
REMARK  135  A    between atoms: _330  and  _331
REMARK  136  A    between atoms: _331  and  _332
REMARK  137  A    between atoms: _337  and  _339
REMARK  138  A    between atoms: _339  and  _340
REMARK  139  A    between atoms: _339  and  _342
REMARK  140  A    between atoms: _342  and  _343
REMARK  141  A    between atoms: _346  and  _348
REMARK  142  A    between atoms: _348  and  _349
REMARK  143  A    between atoms: _348  and  _351
REMARK  144  A    between atoms: _351  and  _352
REMARK  145  A    between atoms: _357  and  _358
REMARK  146  A    between atoms: _360  and  _362
REMARK  147  A    between atoms: _362  and  _363
REMARK  148  A    between atoms: _362  and  _365
REMARK  149  A    between atoms: _365  and  _366
REMARK  150  A    between atoms: _369  and  _371
REMARK  151  A    between atoms: _371  and  _372
REMARK  152  A    between atoms: _371  and  _374
REMARK  153  A    between atoms: _376  and  _378
REMARK  154  A    between atoms: _378  and  _379
REMARK  155  A    between atoms: _382  and  _384
REMARK  156  A    between atoms: _384  and  _385
REMARK  157  A    between atoms: _384  and  _387
REMARK  158  A    between atoms: _387  and  _388
REMARK  159  A    between atoms: _388  and  _389
REMARK  160  A    between atoms: _389  and  _390
REMARK  161  A    between atoms: _390  and  _391
REMARK  162  A    between atoms: _395  and  _397
REMARK  163  A    between atoms: _397  and  _398
REMARK  164  A    between atoms: _397  and  _400
REMARK  165  A    between atoms: _400  and  _401
REMARK  166  A    between atoms: _404  and  _406
REMARK  167  A    between atoms: _406  and  _407
REMARK  168  A    between atoms: _410  and  _412
REMARK  169  A    between atoms: _412  and  _413
REMARK  170  A    between atoms: _412  and  _415
REMARK  171  A    between atoms: _415  and  _416
REMARK  172  A    between atoms: _416  and  _530
REMARK  173  A    between atoms: _417  and  _419
REMARK  174  A    between atoms: _419  and  _420
REMARK  175  A    between atoms: _419  and  _422
REMARK  176  A    between atoms: _422  and  _423
REMARK  177  A    between atoms: _423  and  _424
REMARK  178  A    between atoms: _424  and  _425
REMARK  179  A    between atoms: _425  and  _426
REMARK  180  A    between atoms: _430  and  _432
REMARK  181  A    between atoms: _432  and  _433
REMARK  182  A    between atoms: _435  and  _437
REMARK  183  A    between atoms: _437  and  _438
REMARK  184  A    between atoms: _437  and  _440
REMARK  185  A    between atoms: _440  and  _441
REMARK  186  A    between atoms: _444  and  _446
REMARK  187  A    between atoms: _446  and  _447
REMARK  188  A    between atoms: _446  and  _449
REMARK  189  A    between atoms: _449  and  _450
REMARK  190  A    between atoms: _452  and  _454
REMARK  191  A    between atoms: _454  and  _455
REMARK  192  A    between atoms: _457  and  _459
REMARK  193  A    between atoms: _459  and  _460
REMARK  194  A    between atoms: _462  and  _464
REMARK  195  A    between atoms: _464  and  _465
REMARK  196  A    between atoms: _464  and  _467
REMARK  197  A    between atoms: _467  and  _468
REMARK  198  A    between atoms: _471  and  _473
REMARK  199  A    between atoms: _473  and  _474
REMARK  200  A    between atoms: _473  and  _476
REMARK  201  A    between atoms: _476  and  _477
REMARK  202  A    between atoms: _480  and  _482
REMARK  203  A    between atoms: _482  and  _483
REMARK  204  A    between atoms: _482  and  _485
REMARK  205  A    between atoms: _485  and  _486
REMARK  206  A    between atoms: _488  and  _490
REMARK  207  A    between atoms: _490  and  _491
REMARK  208  A    between atoms: _490  and  _493
REMARK  209  A    between atoms: _493  and  _494
REMARK  210  A    between atoms: _504  and  _506
REMARK  211  A    between atoms: _506  and  _507
REMARK  212  A    between atoms: _509  and  _511
REMARK  213  A    between atoms: _511  and  _512
REMARK  214  A    between atoms: _511  and  _514
REMARK  215  A    between atoms: _514  and  _515
REMARK  216  A    between atoms: _515  and  _516
REMARK  217  A    between atoms: _519  and  _521
REMARK  218  A    between atoms: _521  and  _522
REMARK  219  A    between atoms: _524  and  _526
REMARK  220  A    between atoms: _526  and  _527
REMARK  221  A    between atoms: _526  and  _529
REMARK  222  A    between atoms: _529  and  _530
REMARK  223  A    between atoms: _531  and  _533
REMARK  224  A    between atoms: _533  and  _534
REMARK  225  A    between atoms: _537  and  _539
REMARK  226  A    between atoms: _539  and  _540
REMARK  227  A    between atoms: _539  and  _542
REMARK  228  A    between atoms: _542  and  _543
REMARK  229  A    between atoms: _543  and  _544
REMARK  230  A    between atoms: _549  and  _551
REMARK  231  A    between atoms: _551  and  _552
REMARK  232  A    between atoms: _551  and  _554
REMARK  233  A    between atoms: _554  and  _555
REMARK  234  A    between atoms: _555  and  _556
REMARK  235  A    between atoms: _556  and  _557
REMARK  236  A    between atoms: _567  and  _568
REMARK  237  A    between atoms: _573  and  _575
REMARK  238  A    between atoms: _575  and  _576
REMARK  239  A    between atoms: _578  and  _580
REMARK  240  A    between atoms: _580  and  _581
REMARK  241  A    between atoms: _580  and  _583
REMARK  242  A    between atoms: _586  and  _588
REMARK  243  A    between atoms: _588  and  _589
REMARK  244  A    between atoms: _588  and  _591
REMARK  245  A    between atoms: _591  and  _592
REMARK  246  A    between atoms: _597  and  _598
REMARK  247  A    between atoms: _600  and  _602
REMARK  248  A    between atoms: _602  and  _603
REMARK  249  A    between atoms: _602  and  _605
REMARK  250  A    between atoms: _605  and  _606
REMARK                            x       y       z     vdW  Elec       q    Type
REMARK                         _______ _______ _______ _____ _____    ______ ____
ROOT
ATOM      1  CB  GLN A   1       5.336  10.108 -28.799  0.00  0.00    +0.035 C 
ENDROOT
BRANCH   1   2
ATOM      2  CA  GLN A   1       5.230   9.913 -27.280  0.00  0.00    +0.134 C 
BRANCH   2   3
ATOM      3  N   GLN A   1       6.290   9.013 -26.781  0.00  0.00    -0.239 NA
ATOM      4  H   GLN A   1       6.959   8.595 -27.459  0.00  0.00    +0.142 HD
ENDBRANCH   2   3
BRANCH   2   5
ATOM      5  C   GLN A   1       3.847   9.331 -26.919  0.00  0.00    +0.224 C 
ATOM      6  O   GLN A   1       2.942  10.077 -26.546  0.00  0.00    -0.287 OA
ENDBRANCH   2   5
ENDBRANCH   1   2
BRANCH   1   7
ATOM      7  CG  GLN A   1       6.541  10.975 -29.218  0.00  0.00    +0.087 C 
BRANCH   7   8
ATOM      8  CD  GLN A   1       6.348  12.430 -28.894  0.00  0.00    +0.219 C 
ATOM      9  NE2 GLN A   1       7.445  13.152 -28.747  0.00  0.00    -0.329 N 
ATOM     10 HE21 GLN A   1       7.375  14.174 -28.565  0.00  0.00    +0.145 HD
ATOM     11 HE22 GLN A   1       8.379  12.699 -28.813  0.00  0.00    +0.145 HD
ATOM     12  OE1 GLN A   1       5.226  12.942 -28.820  0.00  0.00    -0.275 OA
ENDBRANCH   7   8
ENDBRANCH   1   7
TORSDOF 5
REMARK  Name = ../refined-set-2016/4x6p/4x6p_pocket.pdb
REMARK  250 active torsions:
REMARK  status: ('A' for Active; 'I' for Inactive)
REMARK    1  A    between atoms: _1  and  _5
REMARK    2  A    between atoms: _5  and  _6
REMARK    3  A    between atoms: _5  and  _8
REMARK    4  A    between atoms: _8  and  _9
REMARK    5  A    between atoms: _12  and  _14
REMARK    6  A    between atoms: _14  and  _15
REMARK    7  A    between atoms: _14  and  _17
REMARK    8  A    between atoms: _20  and  _22
REMARK    9  A    between atoms: _22  and  _23
REMARK   10  A    between atoms: _22  and  _25
REMARK   11  A    between atoms: _25  and  _26
REMARK   12  A    between atoms: _29  and  _31
REMARK   13  A    between atoms: _31  and  _32
REMARK   14  A    between atoms: _31  and  _34
REMARK   15  A    between atoms: _34  and  _35
REMARK   16  A    between atoms: _38  and  _40
REMARK   17  A    between atoms: _40  and  _41
REMARK   18  A    between atoms: _40  and  _43
REMARK   19  A    between atoms: _43  and  _44
REMARK   20  A    between atoms: _49  and  _51
REMARK   21  A    between atoms: _51  and  _52
REMARK   22  A    between atoms: _51  and  _54
REMARK   23  A    between atoms: _54  and  _55
REMARK   24  A    between atoms: _58  and  _60
REMARK   25  A    between atoms: _60  and  _61
REMARK   26  A    between atoms: _60  and  _63
REMARK   27  A    between atoms: _63  and  _64
REMARK   28  A    between atoms: _64  and  _65
REMARK   29  A    between atoms: _70  and  _72
REMARK   30  A    between atoms: _72  and  _73
REMARK   31  A    between atoms: _72  and  _75
REMARK   32  A    between atoms: _75  and  _76
REMARK   33  A    between atoms: _76  and  _77
REMARK   34  A    between atoms: _77  and  _78
REMARK   35  A    between atoms: _87  and  _89
REMARK   36  A    between atoms: _89  and  _90
REMARK   37  A    between atoms: _89  and  _92
REMARK   38  A    between atoms: _92  and  _93
REMARK   39  A    between atoms: _98  and  _100
REMARK   40  A    between atoms: _100  and  _101
REMARK   41  A    between atoms: _100  and  _103
REMARK   42  A    between atoms: _103  and  _104
REMARK   43  A    between atoms: _107  and  _109
REMARK   44  A    between atoms: _109  and  _110
REMARK   45  A    between atoms: _109  and  _112
REMARK   46  A    between atoms: _112  and  _113
REMARK   47  A    between atoms: _113  and  _148
REMARK   48  A    between atoms: _114  and  _116
REMARK   49  A    between atoms: _116  and  _117
REMARK   50  A    between atoms: _119  and  _121
REMARK   51  A    between atoms: _121  and  _122
REMARK   52  A    between atoms: _125  and  _127
REMARK   53  A    between atoms: _127  and  _128
REMARK   54  A    between atoms: _131  and  _133
REMARK   55  A    between atoms: _133  and  _134
REMARK   56  A    between atoms: _133  and  _136
REMARK   57  A    between atoms: _136  and  _137
REMARK   58  A    between atoms: _142  and  _144
REMARK   59  A    between atoms: _144  and  _145
REMARK   60  A    between atoms: _144  and  _147
REMARK   61  A    between atoms: _147  and  _148
REMARK   62  A    between atoms: _149  and  _151
REMARK   63  A    between atoms: _151  and  _152
REMARK   64  A    between atoms: _151  and  _154
REMARK   65  A    between atoms: _154  and  _155
REMARK   66  A    between atoms: _161  and  _163
REMARK   67  A    between atoms: _163  and  _164
REMARK   68  A    between atoms: _163  and  _166
REMARK   69  A    between atoms: _166  and  _167
REMARK   70  A    between atoms: _172  and  _173
REMARK   71  A    between atoms: _175  and  _177
REMARK   72  A    between atoms: _177  and  _178
REMARK   73  A    between atoms: _180  and  _182
REMARK   74  A    between atoms: _182  and  _183
REMARK   75  A    between atoms: _182  and  _185
REMARK   76  A    between atoms: _188  and  _190
REMARK   77  A    between atoms: _190  and  _191
REMARK   78  A    between atoms: _190  and  _193
REMARK   79  A    between atoms: _193  and  _194
REMARK   80  A    between atoms: _194  and  _195
REMARK   81  A    between atoms: _200  and  _202
REMARK   82  A    between atoms: _202  and  _203
REMARK   83  A    between atoms: _202  and  _205
REMARK   84  A    between atoms: _205  and  _206
REMARK   85  A    between atoms: _211  and  _212
REMARK   86  A    between atoms: _214  and  _216
REMARK   87  A    between atoms: _216  and  _217
REMARK   88  A    between atoms: _220  and  _222
REMARK   89  A    between atoms: _222  and  _223
REMARK   90  A    between atoms: _222  and  _225
REMARK   91  A    between atoms: _225  and  _226
REMARK   92  A    between atoms: _229  and  _231
REMARK   93  A    between atoms: _231  and  _232
REMARK   94  A    between atoms: _231  and  _234
REMARK   95  A    between atoms: _237  and  _239
REMARK   96  A    between atoms: _239  and  _240
REMARK   97  A    between atoms: _239  and  _242
REMARK   98  A    between atoms: _242  and  _243
REMARK   99  A    between atoms: _253  and  _255
REMARK  100  A    between atoms: _255  and  _256
REMARK  101  A    between atoms: _258  and  _260
REMARK  102  A    between atoms: _260  and  _261
REMARK  103  A    between atoms: _260  and  _263
REMARK  104  A    between atoms: _263  and  _264
REMARK  105  A    between atoms: _269  and  _270
REMARK  106  A    between atoms: _272  and  _274
REMARK  107  A    between atoms: _274  and  _275
REMARK  108  A    between atoms: _274  and  _277
REMARK  109  A    between atoms: _277  and  _278
REMARK  110  A    between atoms: _278  and  _279
REMARK  111  A    between atoms: _279  and  _280
REMARK  112  A    between atoms: _280  and  _281
REMARK  113  A    between atoms: _285  and  _287
REMARK  114  A    between atoms: _287  and  _288
REMARK  115  A    between atoms: _287  and  _290
REMARK  116  A    between atoms: _290  and  _291
REMARK  117  A    between atoms: _294  and  _296
REMARK  118  A    between atoms: _296  and  _297
REMARK  119  A    between atoms: _296  and  _299
REMARK  120  A    between atoms: _299  and  _300
REMARK  121  A    between atoms: _303  and  _305
REMARK  122  A    between atoms: _305  and  _306
REMARK  123  A    between atoms: _305  and  _308
REMARK  124  A    between atoms: _308  and  _309
REMARK  125  A    between atoms: _309  and  _310
REMARK  126  A    between atoms: _310  and  _311
REMARK  127  A    between atoms: _311  and  _312
REMARK  128  A    between atoms: _316  and  _318
REMARK  129  A    between atoms: _318  and  _319
REMARK  130  A    between atoms: _318  and  _321
REMARK  131  A    between atoms: _321  and  _322
REMARK  132  A    between atoms: _325  and  _327
REMARK  133  A    between atoms: _327  and  _328
REMARK  134  A    between atoms: _327  and  _330
REMARK  135  A    between atoms: _330  and  _331
REMARK  136  A    between atoms: _331  and  _332
REMARK  137  A    between atoms: _337  and  _339
REMARK  138  A    between atoms: _339  and  _340
REMARK  139  A    between atoms: _339  and  _342
REMARK  140  A    between atoms: _342  and  _343
REMARK  141  A    between atoms: _346  and  _348
REMARK  142  A    between atoms: _348  and  _349
REMARK  143  A    between atoms: _348  and  _351
REMARK  144  A    between atoms: _351  and  _352
REMARK  145  A    between atoms: _357  and  _358
REMARK  146  A    between atoms: _360  and  _362
REMARK  147  A    between atoms: _362  and  _363
REMARK  148  A    between atoms: _362  and  _365
REMARK  149  A    between atoms: _365  and  _366
REMARK  150  A    between atoms: _369  and  _371
REMARK  151  A    between atoms: _371  and  _372
REMARK  152  A    between atoms: _371  and  _374
REMARK  153  A    between atoms: _376  and  _378
REMARK  154  A    between atoms: _378  and  _379
REMARK  155  A    between atoms: _382  and  _384
REMARK  156  A    between atoms: _384  and  _385
REMARK  157  A    between atoms: _384  and  _387
REMARK  158  A    between atoms: _387  and  _388
REMARK  159  A    between atoms: _388  and  _389
REMARK  160  A    between atoms: _389  and  _390
REMARK  161  A    between atoms: _390  and  _391
REMARK  162  A    between atoms: _395  and  _397
REMARK  163  A    between atoms: _397  and  _398
REMARK  164  A    between atoms: _397  and  _400
REMARK  165  A    between atoms: _400  and  _401
REMARK  166  A    between atoms: _404  and  _406
REMARK  167  A    between atoms: _406  and  _407
REMARK  168  A    between atoms: _410  and  _412
REMARK  169  A    between atoms: _412  and  _413
REMARK  170  A    between atoms: _412  and  _415
REMARK  171  A    between atoms: _415  and  _416
REMARK  172  A    between atoms: _416  and  _530
REMARK  173  A    between atoms: _417  and  _419
REMARK  174  A    between atoms: _419  and  _420
REMARK  175  A    between atoms: _419  and  _422
REMARK  176  A    between atoms: _422  and  _423
REMARK  177  A    between atoms: _423  and  _424
REMARK  178  A    between atoms: _424  and  _425
REMARK  179  A    between atoms: _425  and  _426
REMARK  180  A    between atoms: _430  and  _432
REMARK  181  A    between atoms: _432  and  _433
REMARK  182  A    between atoms: _435  and  _437
REMARK  183  A    between atoms: _437  and  _438
REMARK  184  A    between atoms: _437  and  _440
REMARK  185  A    between atoms: _440  and  _441
REMARK  186  A    between atoms: _444  and  _446
REMARK  187  A    between atoms: _446  and  _447
REMARK  188  A    between atoms: _446  and  _449
REMARK  189  A    between atoms: _449  and  _450
REMARK  190  A    between atoms: _452  and  _454
REMARK  191  A    between atoms: _454  and  _455
REMARK  192  A    between atoms: _457  and  _459
REMARK  193  A    between atoms: _459  and  _460
REMARK  194  A    between atoms: _462  and  _464
REMARK  195  A    between atoms: _464  and  _465
REMARK  196  A    between atoms: _464  and  _467
REMARK  197  A    between atoms: _467  and  _468
REMARK  198  A    between atoms: _471  and  _473
REMARK  199  A    between atoms: _473  and  _474
REMARK  200  A    between atoms: _473  and  _476
REMARK  201  A    between atoms: _476  and  _477
REMARK  202  A    between atoms: _480  and  _482
REMARK  203  A    between atoms: _482  and  _483
REMARK  204  A    between atoms: _482  and  _485
REMARK  205  A    between atoms: _485  and  _486
REMARK  206  A    between atoms: _488  and  _490
REMARK  207  A    between atoms: _490  and  _491
REMARK  208  A    between atoms: _490  and  _493
REMARK  209  A    between atoms: _493  and  _494
REMARK  210  A    between atoms: _504  and  _506
REMARK  211  A    between atoms: _506  and  _507
REMARK  212  A    between atoms: _509  and  _511
REMARK  213  A    between atoms: _511  and  _512
REMARK  214  A    between atoms: _511  and  _514
REMARK  215  A    between atoms: _514  and  _515
REMARK  216  A    between atoms: _515  and  _516
REMARK  217  A    between atoms: _519  and  _521
REMARK  218  A    between atoms: _521  and  _522
REMARK  219  A    between atoms: _524  and  _526
REMARK  220  A    between atoms: _526  and  _527
REMARK  221  A    between atoms: _526  and  _529
REMARK  222  A    between atoms: _529  and  _530
REMARK  223  A    between atoms: _531  and  _533
REMARK  224  A    between atoms: _533  and  _534
REMARK  225  A    between atoms: _537  and  _539
REMARK  226  A    between atoms: _539  and  _540
REMARK  227  A    between atoms: _539  and  _542
REMARK  228  A    between atoms: _542  and  _543
REMARK  229  A    between atoms: _543  and  _544
REMARK  230  A    between atoms: _549  and  _551
REMARK  231  A    between atoms: _551  and  _552
REMARK  232  A    between atoms: _551  and  _554
REMARK  233  A    between atoms: _554  and  _555
REMARK  234  A    between atoms: _555  and  _556
REMARK  235  A    between atoms: _556  and  _557
REMARK  236  A    between atoms: _567  and  _568
REMARK  237  A    between atoms: _573  and  _575
REMARK  238  A    between atoms: _575  and  _576
REMARK  239  A    between atoms: _578  and  _580
REMARK  240  A    between atoms: _580  and  _581
REMARK  241  A    between atoms: _580  and  _583
REMARK  242  A    between atoms: _586  and  _588
REMARK  243  A    between atoms: _588  and  _589
REMARK  244  A    between atoms: _588  and  _591
REMARK  245  A    between atoms: _591  and  _592
REMARK  246  A    between atoms: _597  and  _598
REMARK  247  A    between atoms: _600  and  _602
REMARK  248  A    between atoms: _602  and  _603
REMARK  249  A    between atoms: _602  and  _605
REMARK  250  A    between atoms: _605  and  _606
REMARK                            x       y       z     vdW  Elec       q    Type
REMARK                         _______ _______ _______ _____ _____    ______ ____
ROOT
ATOM      1  CG  TYR A   1      14.700  32.777 -38.380  0.00  0.00    -0.020 A 
ATOM      2  CD2 TYR A   1      15.629  31.786 -38.689  0.00  0.00    -0.001 A 
ATOM      3  CE2 TYR A   1      15.245  30.606 -39.308  0.00  0.00    +0.036 A 
ATOM      4  CZ  TYR A   1      13.928  30.439 -39.712  0.00  0.00    +0.134 A 
ATOM      5  CE1 TYR A   1      12.987  31.418 -39.441  0.00  0.00    +0.036 A 
ATOM      6  CD1 TYR A   1      13.376  32.578 -38.771  0.00  0.00    -0.001 A 
ENDROOT
BRANCH   4   7
ATOM      7  OH  TYR A   1      13.570  29.297 -40.375  0.00  0.00    -0.506 OA
ATOM      8  HH  TYR A   1      13.212  29.533 -41.267  0.00  0.00    +0.292 HD
ENDBRANCH   4   7
BRANCH   1   9
ATOM      9  CB  TYR A   1      15.137  34.080 -37.758  0.00  0.00    +0.051 C 
BRANCH   9  10
ATOM     10  CA  TYR A   1      15.893  34.980 -38.767  0.00  0.00    +0.137 C 
BRANCH  10  11
ATOM     11  N   TYR A   1      16.241  36.271 -38.180  0.00  0.00    -0.239 NA
ATOM     12  H   TYR A   1      15.837  36.539 -37.260  0.00  0.00    +0.142 HD
ENDBRANCH  10  11
BRANCH  10  13
ATOM     13  C   TYR A   1      15.076  35.094 -40.063  0.00  0.00    +0.224 C 
ATOM     14  O   TYR A   1      14.067  35.804 -40.098  0.00  0.00    -0.287 OA
ENDBRANCH  10  13
ENDBRANCH   9  10
ENDBRANCH   1   9
TORSDOF 5
REMARK  Name = ../refined-set-2016/4x6p/4x6p_pocket.pdb
REMARK  250 active torsions:
REMARK  status: ('A' for Active; 'I' for Inactive)
REMARK    1  A    between atoms: _1  and  _5
REMARK    2  A    between atoms: _5  and  _6
REMARK    3  A    between atoms: _5  and  _8
REMARK    4  A    between atoms: _8  and  _9
REMARK    5  A    between atoms: _12  and  _14
REMARK    6  A    between atoms: _14  and  _15
REMARK    7  A    between atoms: _14  and  _17
REMARK    8  A    between atoms: _20  and  _22
REMARK    9  A    between atoms: _22  and  _23
REMARK   10  A    between atoms: _22  and  _25
REMARK   11  A    between atoms: _25  and  _26
REMARK   12  A    between atoms: _29  and  _31
REMARK   13  A    between atoms: _31  and  _32
REMARK   14  A    between atoms: _31  and  _34
REMARK   15  A    between atoms: _34  and  _35
REMARK   16  A    between atoms: _38  and  _40
REMARK   17  A    between atoms: _40  and  _41
REMARK   18  A    between atoms: _40  and  _43
REMARK   19  A    between atoms: _43  and  _44
REMARK   20  A    between atoms: _49  and  _51
REMARK   21  A    between atoms: _51  and  _52
REMARK   22  A    between atoms: _51  and  _54
REMARK   23  A    between atoms: _54  and  _55
REMARK   24  A    between atoms: _58  and  _60
REMARK   25  A    between atoms: _60  and  _61
REMARK   26  A    between atoms: _60  and  _63
REMARK   27  A    between atoms: _63  and  _64
REMARK   28  A    between atoms: _64  and  _65
REMARK   29  A    between atoms: _70  and  _72
REMARK   30  A    between atoms: _72  and  _73
REMARK   31  A    between atoms: _72  and  _75
REMARK   32  A    between atoms: _75  and  _76
REMARK   33  A    between atoms: _76  and  _77
REMARK   34  A    between atoms: _77  and  _78
REMARK   35  A    between atoms: _87  and  _89
REMARK   36  A    between atoms: _89  and  _90
REMARK   37  A    between atoms: _89  and  _92
REMARK   38  A    between atoms: _92  and  _93
REMARK   39  A    between atoms: _98  and  _100
REMARK   40  A    between atoms: _100  and  _101
REMARK   41  A    between atoms: _100  and  _103
REMARK   42  A    between atoms: _103  and  _104
REMARK   43  A    between atoms: _107  and  _109
REMARK   44  A    between atoms: _109  and  _110
REMARK   45  A    between atoms: _109  and  _112
REMARK   46  A    between atoms: _112  and  _113
REMARK   47  A    between atoms: _113  and  _148
REMARK   48  A    between atoms: _114  and  _116
REMARK   49  A    between atoms: _116  and  _117
REMARK   50  A    between atoms: _119  and  _121
REMARK   51  A    between atoms: _121  and  _122
REMARK   52  A    between atoms: _125  and  _127
REMARK   53  A    between atoms: _127  and  _128
REMARK   54  A    between atoms: _131  and  _133
REMARK   55  A    between atoms: _133  and  _134
REMARK   56  A    between atoms: _133  and  _136
REMARK   57  A    between atoms: _136  and  _137
REMARK   58  A    between atoms: _142  and  _144
REMARK   59  A    between atoms: _144  and  _145
REMARK   60  A    between atoms: _144  and  _147
REMARK   61  A    between atoms: _147  and  _148
REMARK   62  A    between atoms: _149  and  _151
REMARK   63  A    between atoms: _151  and  _152
REMARK   64  A    between atoms: _151  and  _154
REMARK   65  A    between atoms: _154  and  _155
REMARK   66  A    between atoms: _161  and  _163
REMARK   67  A    between atoms: _163  and  _164
REMARK   68  A    between atoms: _163  and  _166
REMARK   69  A    between atoms: _166  and  _167
REMARK   70  A    between atoms: _172  and  _173
REMARK   71  A    between atoms: _175  and  _177
REMARK   72  A    between atoms: _177  and  _178
REMARK   73  A    between atoms: _180  and  _182
REMARK   74  A    between atoms: _182  and  _183
REMARK   75  A    between atoms: _182  and  _185
REMARK   76  A    between atoms: _188  and  _190
REMARK   77  A    between atoms: _190  and  _191
REMARK   78  A    between atoms: _190  and  _193
REMARK   79  A    between atoms: _193  and  _194
REMARK   80  A    between atoms: _194  and  _195
REMARK   81  A    between atoms: _200  and  _202
REMARK   82  A    between atoms: _202  and  _203
REMARK   83  A    between atoms: _202  and  _205
REMARK   84  A    between atoms: _205  and  _206
REMARK   85  A    between atoms: _211  and  _212
REMARK   86  A    between atoms: _214  and  _216
REMARK   87  A    between atoms: _216  and  _217
REMARK   88  A    between atoms: _220  and  _222
REMARK   89  A    between atoms: _222  and  _223
REMARK   90  A    between atoms: _222  and  _225
REMARK   91  A    between atoms: _225  and  _226
REMARK   92  A    between atoms: _229  and  _231
REMARK   93  A    between atoms: _231  and  _232
REMARK   94  A    between atoms: _231  and  _234
REMARK   95  A    between atoms: _237  and  _239
REMARK   96  A    between atoms: _239  and  _240
REMARK   97  A    between atoms: _239  and  _242
REMARK   98  A    between atoms: _242  and  _243
REMARK   99  A    between atoms: _253  and  _255
REMARK  100  A    between atoms: _255  and  _256
REMARK  101  A    between atoms: _258  and  _260
REMARK  102  A    between atoms: _260  and  _261
REMARK  103  A    between atoms: _260  and  _263
REMARK  104  A    between atoms: _263  and  _264
REMARK  105  A    between atoms: _269  and  _270
REMARK  106  A    between atoms: _272  and  _274
REMARK  107  A    between atoms: _274  and  _275
REMARK  108  A    between atoms: _274  and  _277
REMARK  109  A    between atoms: _277  and  _278
REMARK  110  A    between atoms: _278  and  _279
REMARK  111  A    between atoms: _279  and  _280
REMARK  112  A    between atoms: _280  and  _281
REMARK  113  A    between atoms: _285  and  _287
REMARK  114  A    between atoms: _287  and  _288
REMARK  115  A    between atoms: _287  and  _290
REMARK  116  A    between atoms: _290  and  _291
REMARK  117  A    between atoms: _294  and  _296
REMARK  118  A    between atoms: _296  and  _297
REMARK  119  A    between atoms: _296  and  _299
REMARK  120  A    between atoms: _299  and  _300
REMARK  121  A    between atoms: _303  and  _305
REMARK  122  A    between atoms: _305  and  _306
REMARK  123  A    between atoms: _305  and  _308
REMARK  124  A    between atoms: _308  and  _309
REMARK  125  A    between atoms: _309  and  _310
REMARK  126  A    between atoms: _310  and  _311
REMARK  127  A    between atoms: _311  and  _312
REMARK  128  A    between atoms: _316  and  _318
REMARK  129  A    between atoms: _318  and  _319
REMARK  130  A    between atoms: _318  and  _321
REMARK  131  A    between atoms: _321  and  _322
REMARK  132  A    between atoms: _325  and  _327
REMARK  133  A    between atoms: _327  and  _328
REMARK  134  A    between atoms: _327  and  _330
REMARK  135  A    between atoms: _330  and  _331
REMARK  136  A    between atoms: _331  and  _332
REMARK  137  A    between atoms: _337  and  _339
REMARK  138  A    between atoms: _339  and  _340
REMARK  139  A    between atoms: _339  and  _342
REMARK  140  A    between atoms: _342  and  _343
REMARK  141  A    between atoms: _346  and  _348
REMARK  142  A    between atoms: _348  and  _349
REMARK  143  A    between atoms: _348  and  _351
REMARK  144  A    between atoms: _351  and  _352
REMARK  145  A    between atoms: _357  and  _358
REMARK  146  A    between atoms: _360  and  _362
REMARK  147  A    between atoms: _362  and  _363
REMARK  148  A    between atoms: _362  and  _365
REMARK  149  A    between atoms: _365  and  _366
REMARK  150  A    between atoms: _369  and  _371
REMARK  151  A    between atoms: _371  and  _372
REMARK  152  A    between atoms: _371  and  _374
REMARK  153  A    between atoms: _376  and  _378
REMARK  154  A    between atoms: _378  and  _379
REMARK  155  A    between atoms: _382  and  _384
REMARK  156  A    between atoms: _384  and  _385
REMARK  157  A    between atoms: _384  and  _387
REMARK  158  A    between atoms: _387  and  _388
REMARK  159  A    between atoms: _388  and  _389
REMARK  160  A    between atoms: _389  and  _390
REMARK  161  A    between atoms: _390  and  _391
REMARK  162  A    between atoms: _395  and  _397
REMARK  163  A    between atoms: _397  and  _398
REMARK  164  A    between atoms: _397  and  _400
REMARK  165  A    between atoms: _400  and  _401
REMARK  166  A    between atoms: _404  and  _406
REMARK  167  A    between atoms: _406  and  _407
REMARK  168  A    between atoms: _410  and  _412
REMARK  169  A    between atoms: _412  and  _413
REMARK  170  A    between atoms: _412  and  _415
REMARK  171  A    between atoms: _415  and  _416
REMARK  172  A    between atoms: _416  and  _530
REMARK  173  A    between atoms: _417  and  _419
REMARK  174  A    between atoms: _419  and  _420
REMARK  175  A    between atoms: _419  and  _422
REMARK  176  A    between atoms: _422  and  _423
REMARK  177  A    between atoms: _423  and  _424
REMARK  178  A    between atoms: _424  and  _425
REMARK  179  A    between atoms: _425  and  _426
REMARK  180  A    between atoms: _430  and  _432
REMARK  181  A    between atoms: _432  and  _433
REMARK  182  A    between atoms: _435  and  _437
REMARK  183  A    between atoms: _437  and  _438
REMARK  184  A    between atoms: _437  and  _440
REMARK  185  A    between atoms: _440  and  _441
REMARK  186  A    between atoms: _444  and  _446
REMARK  187  A    between atoms: _446  and  _447
REMARK  188  A    between atoms: _446  and  _449
REMARK  189  A    between atoms: _449  and  _450
REMARK  190  A    between atoms: _452  and  _454
REMARK  191  A    between atoms: _454  and  _455
REMARK  192  A    between atoms: _457  and  _459
REMARK  193  A    between atoms: _459  and  _460
REMARK  194  A    between atoms: _462  and  _464
REMARK  195  A    between atoms: _464  and  _465
REMARK  196  A    between atoms: _464  and  _467
REMARK  197  A    between atoms: _467  and  _468
REMARK  198  A    between atoms: _471  and  _473
REMARK  199  A    between atoms: _473  and  _474
REMARK  200  A    between atoms: _473  and  _476
REMARK  201  A    between atoms: _476  and  _477
REMARK  202  A    between atoms: _480  and  _482
REMARK  203  A    between atoms: _482  and  _483
REMARK  204  A    between atoms: _482  and  _485
REMARK  205  A    between atoms: _485  and  _486
REMARK  206  A    between atoms: _488  and  _490
REMARK  207  A    between atoms: _490  and  _491
REMARK  208  A    between atoms: _490  and  _493
REMARK  209  A    between atoms: _493  and  _494
REMARK  210  A    between atoms: _504  and  _506
REMARK  211  A    between atoms: _506  and  _507
REMARK  212  A    between atoms: _509  and  _511
REMARK  213  A    between atoms: _511  and  _512
REMARK  214  A    between atoms: _511  and  _514
REMARK  215  A    between atoms: _514  and  _515
REMARK  216  A    between atoms: _515  and  _516
REMARK  217  A    between atoms: _519  and  _521
REMARK  218  A    between atoms: _521  and  _522
REMARK  219  A    between atoms: _524  and  _526
REMARK  220  A    between atoms: _526  and  _527
REMARK  221  A    between atoms: _526  and  _529
REMARK  222  A    between atoms: _529  and  _530
REMARK  223  A    between atoms: _531  and  _533
REMARK  224  A    between atoms: _533  and  _534
REMARK  225  A    between atoms: _537  and  _539
REMARK  226  A    between atoms: _539  and  _540
REMARK  227  A    between atoms: _539  and  _542
REMARK  228  A    between atoms: _542  and  _543
REMARK  229  A    between atoms: _543  and  _544
REMARK  230  A    between atoms: _549  and  _551
REMARK  231  A    between atoms: _551  and  _552
REMARK  232  A    between atoms: _551  and  _554
REMARK  233  A    between atoms: _554  and  _555
REMARK  234  A    between atoms: _555  and  _556
REMARK  235  A    between atoms: _556  and  _557
REMARK  236  A    between atoms: _567  and  _568
REMARK  237  A    between atoms: _573  and  _575
REMARK  238  A    between atoms: _575  and  _576
REMARK  239  A    between atoms: _578  and  _580
REMARK  240  A    between atoms: _580  and  _581
REMARK  241  A    between atoms: _580  and  _583
REMARK  242  A    between atoms: _586  and  _588
REMARK  243  A    between atoms: _588  and  _589
REMARK  244  A    between atoms: _588  and  _591
REMARK  245  A    between atoms: _591  and  _592
REMARK  246  A    between atoms: _597  and  _598
REMARK  247  A    between atoms: _600  and  _602
REMARK  248  A    between atoms: _602  and  _603
REMARK  249  A    between atoms: _602  and  _605
REMARK  250  A    between atoms: _605  and  _606
REMARK                            x       y       z     vdW  Elec       q    Type
REMARK                         _______ _______ _______ _____ _____    ______ ____
ROOT
ATOM      1  CA  ALA A   1      17.461  27.730 -41.183  0.00  0.00    +0.133 C 
ATOM      2  CB  ALA A   1      17.004  26.287 -40.976  0.00  0.00    +0.027 C 
ENDROOT
BRANCH   1   3
ATOM      3  N   ALA A   1      16.414  28.505 -41.897  0.00  0.00    -0.239 NA
ATOM      4  H   ALA A   1      15.498  28.055 -42.097  0.00  0.00    +0.142 HD
ENDBRANCH   1   3
BRANCH   1   5
ATOM      5  C   ALA A   1      18.839  27.774 -41.865  0.00  0.00    +0.224 C 
ATOM      6  O   ALA A   1      19.830  28.033 -41.192  0.00  0.00    -0.287 OA
ENDBRANCH   1   5
TORSDOF 2
REMARK  Name = ../refined-set-2016/4x6p/4x6p_pocket.pdb
REMARK  250 active torsions:
REMARK  status: ('A' for Active; 'I' for Inactive)
REMARK    1  A    between atoms: _1  and  _5
REMARK    2  A    between atoms: _5  and  _6
REMARK    3  A    between atoms: _5  and  _8
REMARK    4  A    between atoms: _8  and  _9
REMARK    5  A    between atoms: _12  and  _14
REMARK    6  A    between atoms: _14  and  _15
REMARK    7  A    between atoms: _14  and  _17
REMARK    8  A    between atoms: _20  and  _22
REMARK    9  A    between atoms: _22  and  _23
REMARK   10  A    between atoms: _22  and  _25
REMARK   11  A    between atoms: _25  and  _26
REMARK   12  A    between atoms: _29  and  _31
REMARK   13  A    between atoms: _31  and  _32
REMARK   14  A    between atoms: _31  and  _34
REMARK   15  A    between atoms: _34  and  _35
REMARK   16  A    between atoms: _38  and  _40
REMARK   17  A    between atoms: _40  and  _41
REMARK   18  A    between atoms: _40  and  _43
REMARK   19  A    between atoms: _43  and  _44
REMARK   20  A    between atoms: _49  and  _51
REMARK   21  A    between atoms: _51  and  _52
REMARK   22  A    between atoms: _51  and  _54
REMARK   23  A    between atoms: _54  and  _55
REMARK   24  A    between atoms: _58  and  _60
REMARK   25  A    between atoms: _60  and  _61
REMARK   26  A    between atoms: _60  and  _63
REMARK   27  A    between atoms: _63  and  _64
REMARK   28  A    between atoms: _64  and  _65
REMARK   29  A    between atoms: _70  and  _72
REMARK   30  A    between atoms: _72  and  _73
REMARK   31  A    between atoms: _72  and  _75
REMARK   32  A    between atoms: _75  and  _76
REMARK   33  A    between atoms: _76  and  _77
REMARK   34  A    between atoms: _77  and  _78
REMARK   35  A    between atoms: _87  and  _89
REMARK   36  A    between atoms: _89  and  _90
REMARK   37  A    between atoms: _89  and  _92
REMARK   38  A    between atoms: _92  and  _93
REMARK   39  A    between atoms: _98  and  _100
REMARK   40  A    between atoms: _100  and  _101
REMARK   41  A    between atoms: _100  and  _103
REMARK   42  A    between atoms: _103  and  _104
REMARK   43  A    between atoms: _107  and  _109
REMARK   44  A    between atoms: _109  and  _110
REMARK   45  A    between atoms: _109  and  _112
REMARK   46  A    between atoms: _112  and  _113
REMARK   47  A    between atoms: _113  and  _148
REMARK   48  A    between atoms: _114  and  _116
REMARK   49  A    between atoms: _116  and  _117
REMARK   50  A    between atoms: _119  and  _121
REMARK   51  A    between atoms: _121  and  _122
REMARK   52  A    between atoms: _125  and  _127
REMARK   53  A    between atoms: _127  and  _128
REMARK   54  A    between atoms: _131  and  _133
REMARK   55  A    between atoms: _133  and  _134
REMARK   56  A    between atoms: _133  and  _136
REMARK   57  A    between atoms: _136  and  _137
REMARK   58  A    between atoms: _142  and  _144
REMARK   59  A    between atoms: _144  and  _145
REMARK   60  A    between atoms: _144  and  _147
REMARK   61  A    between atoms: _147  and  _148
REMARK   62  A    between atoms: _149  and  _151
REMARK   63  A    between atoms: _151  and  _152
REMARK   64  A    between atoms: _151  and  _154
REMARK   65  A    between atoms: _154  and  _155
REMARK   66  A    between atoms: _161  and  _163
REMARK   67  A    between atoms: _163  and  _164
REMARK   68  A    between atoms: _163  and  _166
REMARK   69  A    between atoms: _166  and  _167
REMARK   70  A    between atoms: _172  and  _173
REMARK   71  A    between atoms: _175  and  _177
REMARK   72  A    between atoms: _177  and  _178
REMARK   73  A    between atoms: _180  and  _182
REMARK   74  A    between atoms: _182  and  _183
REMARK   75  A    between atoms: _182  and  _185
REMARK   76  A    between atoms: _188  and  _190
REMARK   77  A    between atoms: _190  and  _191
REMARK   78  A    between atoms: _190  and  _193
REMARK   79  A    between atoms: _193  and  _194
REMARK   80  A    between atoms: _194  and  _195
REMARK   81  A    between atoms: _200  and  _202
REMARK   82  A    between atoms: _202  and  _203
REMARK   83  A    between atoms: _202  and  _205
REMARK   84  A    between atoms: _205  and  _206
REMARK   85  A    between atoms: _211  and  _212
REMARK   86  A    between atoms: _214  and  _216
REMARK   87  A    between atoms: _216  and  _217
REMARK   88  A    between atoms: _220  and  _222
REMARK   89  A    between atoms: _222  and  _223
REMARK   90  A    between atoms: _222  and  _225
REMARK   91  A    between atoms: _225  and  _226
REMARK   92  A    between atoms: _229  and  _231
REMARK   93  A    between atoms: _231  and  _232
REMARK   94  A    between atoms: _231  and  _234
REMARK   95  A    between atoms: _237  and  _239
REMARK   96  A    between atoms: _239  and  _240
REMARK   97  A    between atoms: _239  and  _242
REMARK   98  A    between atoms: _242  and  _243
REMARK   99  A    between atoms: _253  and  _255
REMARK  100  A    between atoms: _255  and  _256
REMARK  101  A    between atoms: _258  and  _260
REMARK  102  A    between atoms: _260  and  _261
REMARK  103  A    between atoms: _260  and  _263
REMARK  104  A    between atoms: _263  and  _264
REMARK  105  A    between atoms: _269  and  _270
REMARK  106  A    between atoms: _272  and  _274
REMARK  107  A    between atoms: _274  and  _275
REMARK  108  A    between atoms: _274  and  _277
REMARK  109  A    between atoms: _277  and  _278
REMARK  110  A    between atoms: _278  and  _279
REMARK  111  A    between atoms: _279  and  _280
REMARK  112  A    between atoms: _280  and  _281
REMARK  113  A    between atoms: _285  and  _287
REMARK  114  A    between atoms: _287  and  _288
REMARK  115  A    between atoms: _287  and  _290
REMARK  116  A    between atoms: _290  and  _291
REMARK  117  A    between atoms: _294  and  _296
REMARK  118  A    between atoms: _296  and  _297
REMARK  119  A    between atoms: _296  and  _299
REMARK  120  A    between atoms: _299  and  _300
REMARK  121  A    between atoms: _303  and  _305
REMARK  122  A    between atoms: _305  and  _306
REMARK  123  A    between atoms: _305  and  _308
REMARK  124  A    between atoms: _308  and  _309
REMARK  125  A    between atoms: _309  and  _310
REMARK  126  A    between atoms: _310  and  _311
REMARK  127  A    between atoms: _311  and  _312
REMARK  128  A    between atoms: _316  and  _318
REMARK  129  A    between atoms: _318  and  _319
REMARK  130  A    between atoms: _318  and  _321
REMARK  131  A    between atoms: _321  and  _322
REMARK  132  A    between atoms: _325  and  _327
REMARK  133  A    between atoms: _327  and  _328
REMARK  134  A    between atoms: _327  and  _330
REMARK  135  A    between atoms: _330  and  _331
REMARK  136  A    between atoms: _331  and  _332
REMARK  137  A    between atoms: _337  and  _339
REMARK  138  A    between atoms: _339  and  _340
REMARK  139  A    between atoms: _339  and  _342
REMARK  140  A    between atoms: _342  and  _343
REMARK  141  A    between atoms: _346  and  _348
REMARK  142  A    between atoms: _348  and  _349
REMARK  143  A    between atoms: _348  and  _351
REMARK  144  A    between atoms: _351  and  _352
REMARK  145  A    between atoms: _357  and  _358
REMARK  146  A    between atoms: _360  and  _362
REMARK  147  A    between atoms: _362  and  _363
REMARK  148  A    between atoms: _362  and  _365
REMARK  149  A    between atoms: _365  and  _366
REMARK  150  A    between atoms: _369  and  _371
REMARK  151  A    between atoms: _371  and  _372
REMARK  152  A    between atoms: _371  and  _374
REMARK  153  A    between atoms: _376  and  _378
REMARK  154  A    between atoms: _378  and  _379
REMARK  155  A    between atoms: _382  and  _384
REMARK  156  A    between atoms: _384  and  _385
REMARK  157  A    between atoms: _384  and  _387
REMARK  158  A    between atoms: _387  and  _388
REMARK  159  A    between atoms: _388  and  _389
REMARK  160  A    between atoms: _389  and  _390
REMARK  161  A    between atoms: _390  and  _391
REMARK  162  A    between atoms: _395  and  _397
REMARK  163  A    between atoms: _397  and  _398
REMARK  164  A    between atoms: _397  and  _400
REMARK  165  A    between atoms: _400  and  _401
REMARK  166  A    between atoms: _404  and  _406
REMARK  167  A    between atoms: _406  and  _407
REMARK  168  A    between atoms: _410  and  _412
REMARK  169  A    between atoms: _412  and  _413
REMARK  170  A    between atoms: _412  and  _415
REMARK  171  A    between atoms: _415  and  _416
REMARK  172  A    between atoms: _416  and  _530
REMARK  173  A    between atoms: _417  and  _419
REMARK  174  A    between atoms: _419  and  _420
REMARK  175  A    between atoms: _419  and  _422
REMARK  176  A    between atoms: _422  and  _423
REMARK  177  A    between atoms: _423  and  _424
REMARK  178  A    between atoms: _424  and  _425
REMARK  179  A    between atoms: _425  and  _426
REMARK  180  A    between atoms: _430  and  _432
REMARK  181  A    between atoms: _432  and  _433
REMARK  182  A    between atoms: _435  and  _437
REMARK  183  A    between atoms: _437  and  _438
REMARK  184  A    between atoms: _437  and  _440
REMARK  185  A    between atoms: _440  and  _441
REMARK  186  A    between atoms: _444  and  _446
REMARK  187  A    between atoms: _446  and  _447
REMARK  188  A    between atoms: _446  and  _449
REMARK  189  A    between atoms: _449  and  _450
REMARK  190  A    between atoms: _452  and  _454
REMARK  191  A    between atoms: _454  and  _455
REMARK  192  A    between atoms: _457  and  _459
REMARK  193  A    between atoms: _459  and  _460
REMARK  194  A    between atoms: _462  and  _464
REMARK  195  A    between atoms: _464  and  _465
REMARK  196  A    between atoms: _464  and  _467
REMARK  197  A    between atoms: _467  and  _468
REMARK  198  A    between atoms: _471  and  _473
REMARK  199  A    between atoms: _473  and  _474
REMARK  200  A    between atoms: _473  and  _476
REMARK  201  A    between atoms: _476  and  _477
REMARK  202  A    between atoms: _480  and  _482
REMARK  203  A    between atoms: _482  and  _483
REMARK  204  A    between atoms: _482  and  _485
REMARK  205  A    between atoms: _485  and  _486
REMARK  206  A    between atoms: _488  and  _490
REMARK  207  A    between atoms: _490  and  _491
REMARK  208  A    between atoms: _490  and  _493
REMARK  209  A    between atoms: _493  and  _494
REMARK  210  A    between atoms: _504  and  _506
REMARK  211  A    between atoms: _506  and  _507
REMARK  212  A    between atoms: _509  and  _511
REMARK  213  A    between atoms: _511  and  _512
REMARK  214  A    between atoms: _511  and  _514
REMARK  215  A    between atoms: _514  and  _515
REMARK  216  A    between atoms: _515  and  _516
REMARK  217  A    between atoms: _519  and  _521
REMARK  218  A    between atoms: _521  and  _522
REMARK  219  A    between atoms: _524  and  _526
REMARK  220  A    between atoms: _526  and  _527
REMARK  221  A    between atoms: _526  and  _529
REMARK  222  A    between atoms: _529  and  _530
REMARK  223  A    between atoms: _531  and  _533
REMARK  224  A    between atoms: _533  and  _534
REMARK  225  A    between atoms: _537  and  _539
REMARK  226  A    between atoms: _539  and  _540
REMARK  227  A    between atoms: _539  and  _542
REMARK  228  A    between atoms: _542  and  _543
REMARK  229  A    between atoms: _543  and  _544
REMARK  230  A    between atoms: _549  and  _551
REMARK  231  A    between atoms: _551  and  _552
REMARK  232  A    between atoms: _551  and  _554
REMARK  233  A    between atoms: _554  and  _555
REMARK  234  A    between atoms: _555  and  _556
REMARK  235  A    between atoms: _556  and  _557
REMARK  236  A    between atoms: _567  and  _568
REMARK  237  A    between atoms: _573  and  _575
REMARK  238  A    between atoms: _575  and  _576
REMARK  239  A    between atoms: _578  and  _580
REMARK  240  A    between atoms: _580  and  _581
REMARK  241  A    between atoms: _580  and  _583
REMARK  242  A    between atoms: _586  and  _588
REMARK  243  A    between atoms: _588  and  _589
REMARK  244  A    between atoms: _588  and  _591
REMARK  245  A    between atoms: _591  and  _592
REMARK  246  A    between atoms: _597  and  _598
REMARK  247  A    between atoms: _600  and  _602
REMARK  248  A    between atoms: _602  and  _603
REMARK  249  A    between atoms: _602  and  _605
REMARK  250  A    between atoms: _605  and  _606
REMARK                            x       y       z     vdW  Elec       q    Type
REMARK                         _______ _______ _______ _____ _____    ______ ____
ROOT
ATOM      1  CA  ASP A   1      17.713  29.721 -36.179  0.00  0.00    +0.144 C 
ENDROOT
BRANCH   1   2
ATOM      2  N   ASP A   1      18.757  30.702 -36.430  0.00  0.00    -0.239 NA
ATOM      3  H   ASP A   1      19.692  30.369 -36.740  0.00  0.00    +0.142 HD
ENDBRANCH   1   2
BRANCH   1   4
ATOM      4  C   ASP A   1      17.604  29.458 -34.668  0.00  0.00    +0.225 C 
ATOM      5  O   ASP A   1      18.030  28.422 -34.161  0.00  0.00    -0.287 OA
ENDBRANCH   1   4
BRANCH   1   6
ATOM      6  CB  ASP A   1      17.966  28.430 -36.961  0.00  0.00    +0.139 C 
BRANCH   6   7
ATOM      7  CG  ASP A   1      16.728  27.581 -37.109  0.00  0.00    +0.367 C 
ATOM      8  OD2 ASP A   1      15.645  28.028 -36.678  0.00  0.00    -0.246 OA
ATOM      9  OD1 ASP A   1      16.861  26.439 -37.545  0.00  0.00    -0.246 OA
ENDBRANCH   6   7
ENDBRANCH   1   6
TORSDOF 4
REMARK  Name = ../refined-set-2016/4x6p/4x6p_pocket.pdb
REMARK  250 active torsions:
REMARK  status: ('A' for Active; 'I' for Inactive)
REMARK    1  A    between atoms: _1  and  _5
REMARK    2  A    between atoms: _5  and  _6
REMARK    3  A    between atoms: _5  and  _8
REMARK    4  A    between atoms: _8  and  _9
REMARK    5  A    between atoms: _12  and  _14
REMARK    6  A    between atoms: _14  and  _15
REMARK    7  A    between atoms: _14  and  _17
REMARK    8  A    between atoms: _20  and  _22
REMARK    9  A    between atoms: _22  and  _23
REMARK   10  A    between atoms: _22  and  _25
REMARK   11  A    between atoms: _25  and  _26
REMARK   12  A    between atoms: _29  and  _31
REMARK   13  A    between atoms: _31  and  _32
REMARK   14  A    between atoms: _31  and  _34
REMARK   15  A    between atoms: _34  and  _35
REMARK   16  A    between atoms: _38  and  _40
REMARK   17  A    between atoms: _40  and  _41
REMARK   18  A    between atoms: _40  and  _43
REMARK   19  A    between atoms: _43  and  _44
REMARK   20  A    between atoms: _49  and  _51
REMARK   21  A    between atoms: _51  and  _52
REMARK   22  A    between atoms: _51  and  _54
REMARK   23  A    between atoms: _54  and  _55
REMARK   24  A    between atoms: _58  and  _60
REMARK   25  A    between atoms: _60  and  _61
REMARK   26  A    between atoms: _60  and  _63
REMARK   27  A    between atoms: _63  and  _64
REMARK   28  A    between atoms: _64  and  _65
REMARK   29  A    between atoms: _70  and  _72
REMARK   30  A    between atoms: _72  and  _73
REMARK   31  A    between atoms: _72  and  _75
REMARK   32  A    between atoms: _75  and  _76
REMARK   33  A    between atoms: _76  and  _77
REMARK   34  A    between atoms: _77  and  _78
REMARK   35  A    between atoms: _87  and  _89
REMARK   36  A    between atoms: _89  and  _90
REMARK   37  A    between atoms: _89  and  _92
REMARK   38  A    between atoms: _92  and  _93
REMARK   39  A    between atoms: _98  and  _100
REMARK   40  A    between atoms: _100  and  _101
REMARK   41  A    between atoms: _100  and  _103
REMARK   42  A    between atoms: _103  and  _104
REMARK   43  A    between atoms: _107  and  _109
REMARK   44  A    between atoms: _109  and  _110
REMARK   45  A    between atoms: _109  and  _112
REMARK   46  A    between atoms: _112  and  _113
REMARK   47  A    between atoms: _113  and  _148
REMARK   48  A    between atoms: _114  and  _116
REMARK   49  A    between atoms: _116  and  _117
REMARK   50  A    between atoms: _119  and  _121
REMARK   51  A    between atoms: _121  and  _122
REMARK   52  A    between atoms: _125  and  _127
REMARK   53  A    between atoms: _127  and  _128
REMARK   54  A    between atoms: _131  and  _133
REMARK   55  A    between atoms: _133  and  _134
REMARK   56  A    between atoms: _133  and  _136
REMARK   57  A    between atoms: _136  and  _137
REMARK   58  A    between atoms: _142  and  _144
REMARK   59  A    between atoms: _144  and  _145
REMARK   60  A    between atoms: _144  and  _147
REMARK   61  A    between atoms: _147  and  _148
REMARK   62  A    between atoms: _149  and  _151
REMARK   63  A    between atoms: _151  and  _152
REMARK   64  A    between atoms: _151  and  _154
REMARK   65  A    between atoms: _154  and  _155
REMARK   66  A    between atoms: _161  and  _163
REMARK   67  A    between atoms: _163  and  _164
REMARK   68  A    between atoms: _163  and  _166
REMARK   69  A    between atoms: _166  and  _167
REMARK   70  A    between atoms: _172  and  _173
REMARK   71  A    between atoms: _175  and  _177
REMARK   72  A    between atoms: _177  and  _178
REMARK   73  A    between atoms: _180  and  _182
REMARK   74  A    between atoms: _182  and  _183
REMARK   75  A    between atoms: _182  and  _185
REMARK   76  A    between atoms: _188  and  _190
REMARK   77  A    between atoms: _190  and  _191
REMARK   78  A    between atoms: _190  and  _193
REMARK   79  A    between atoms: _193  and  _194
REMARK   80  A    between atoms: _194  and  _195
REMARK   81  A    between atoms: _200  and  _202
REMARK   82  A    between atoms: _202  and  _203
REMARK   83  A    between atoms: _202  and  _205
REMARK   84  A    between atoms: _205  and  _206
REMARK   85  A    between atoms: _211  and  _212
REMARK   86  A    between atoms: _214  and  _216
REMARK   87  A    between atoms: _216  and  _217
REMARK   88  A    between atoms: _220  and  _222
REMARK   89  A    between atoms: _222  and  _223
REMARK   90  A    between atoms: _222  and  _225
REMARK   91  A    between atoms: _225  and  _226
REMARK   92  A    between atoms: _229  and  _231
REMARK   93  A    between atoms: _231  and  _232
REMARK   94  A    between atoms: _231  and  _234
REMARK   95  A    between atoms: _237  and  _239
REMARK   96  A    between atoms: _239  and  _240
REMARK   97  A    between atoms: _239  and  _242
REMARK   98  A    between atoms: _242  and  _243
REMARK   99  A    between atoms: _253  and  _255
REMARK  100  A    between atoms: _255  and  _256
REMARK  101  A    between atoms: _258  and  _260
REMARK  102  A    between atoms: _260  and  _261
REMARK  103  A    between atoms: _260  and  _263
REMARK  104  A    between atoms: _263  and  _264
REMARK  105  A    between atoms: _269  and  _270
REMARK  106  A    between atoms: _272  and  _274
REMARK  107  A    between atoms: _274  and  _275
REMARK  108  A    between atoms: _274  and  _277
REMARK  109  A    between atoms: _277  and  _278
REMARK  110  A    between atoms: _278  and  _279
REMARK  111  A    between atoms: _279  and  _280
REMARK  112  A    between atoms: _280  and  _281
REMARK  113  A    between atoms: _285  and  _287
REMARK  114  A    between atoms: _287  and  _288
REMARK  115  A    between atoms: _287  and  _290
REMARK  116  A    between atoms: _290  and  _291
REMARK  117  A    between atoms: _294  and  _296
REMARK  118  A    between atoms: _296  and  _297
REMARK  119  A    between atoms: _296  and  _299
REMARK  120  A    between atoms: _299  and  _300
REMARK  121  A    between atoms: _303  and  _305
REMARK  122  A    between atoms: _305  and  _306
REMARK  123  A    between atoms: _305  and  _308
REMARK  124  A    between atoms: _308  and  _309
REMARK  125  A    between atoms: _309  and  _310
REMARK  126  A    between atoms: _310  and  _311
REMARK  127  A    between atoms: _311  and  _312
REMARK  128  A    between atoms: _316  and  _318
REMARK  129  A    between atoms: _318  and  _319
REMARK  130  A    between atoms: _318  and  _321
REMARK  131  A    between atoms: _321  and  _322
REMARK  132  A    between atoms: _325  and  _327
REMARK  133  A    between atoms: _327  and  _328
REMARK  134  A    between atoms: _327  and  _330
REMARK  135  A    between atoms: _330  and  _331
REMARK  136  A    between atoms: _331  and  _332
REMARK  137  A    between atoms: _337  and  _339
REMARK  138  A    between atoms: _339  and  _340
REMARK  139  A    between atoms: _339  and  _342
REMARK  140  A    between atoms: _342  and  _343
REMARK  141  A    between atoms: _346  and  _348
REMARK  142  A    between atoms: _348  and  _349
REMARK  143  A    between atoms: _348  and  _351
REMARK  144  A    between atoms: _351  and  _352
REMARK  145  A    between atoms: _357  and  _358
REMARK  146  A    between atoms: _360  and  _362
REMARK  147  A    between atoms: _362  and  _363
REMARK  148  A    between atoms: _362  and  _365
REMARK  149  A    between atoms: _365  and  _366
REMARK  150  A    between atoms: _369  and  _371
REMARK  151  A    between atoms: _371  and  _372
REMARK  152  A    between atoms: _371  and  _374
REMARK  153  A    between atoms: _376  and  _378
REMARK  154  A    between atoms: _378  and  _379
REMARK  155  A    between atoms: _382  and  _384
REMARK  156  A    between atoms: _384  and  _385
REMARK  157  A    between atoms: _384  and  _387
REMARK  158  A    between atoms: _387  and  _388
REMARK  159  A    between atoms: _388  and  _389
REMARK  160  A    between atoms: _389  and  _390
REMARK  161  A    between atoms: _390  and  _391
REMARK  162  A    between atoms: _395  and  _397
REMARK  163  A    between atoms: _397  and  _398
REMARK  164  A    between atoms: _397  and  _400
REMARK  165  A    between atoms: _400  and  _401
REMARK  166  A    between atoms: _404  and  _406
REMARK  167  A    between atoms: _406  and  _407
REMARK  168  A    between atoms: _410  and  _412
REMARK  169  A    between atoms: _412  and  _413
REMARK  170  A    between atoms: _412  and  _415
REMARK  171  A    between atoms: _415  and  _416
REMARK  172  A    between atoms: _416  and  _530
REMARK  173  A    between atoms: _417  and  _419
REMARK  174  A    between atoms: _419  and  _420
REMARK  175  A    between atoms: _419  and  _422
REMARK  176  A    between atoms: _422  and  _423
REMARK  177  A    between atoms: _423  and  _424
REMARK  178  A    between atoms: _424  and  _425
REMARK  179  A    between atoms: _425  and  _426
REMARK  180  A    between atoms: _430  and  _432
REMARK  181  A    between atoms: _432  and  _433
REMARK  182  A    between atoms: _435  and  _437
REMARK  183  A    between atoms: _437  and  _438
REMARK  184  A    between atoms: _437  and  _440
REMARK  185  A    between atoms: _440  and  _441
REMARK  186  A    between atoms: _444  and  _446
REMARK  187  A    between atoms: _446  and  _447
REMARK  188  A    between atoms: _446  and  _449
REMARK  189  A    between atoms: _449  and  _450
REMARK  190  A    between atoms: _452  and  _454
REMARK  191  A    between atoms: _454  and  _455
REMARK  192  A    between atoms: _457  and  _459
REMARK  193  A    between atoms: _459  and  _460
REMARK  194  A    between atoms: _462  and  _464
REMARK  195  A    between atoms: _464  and  _465
REMARK  196  A    between atoms: _464  and  _467
REMARK  197  A    between atoms: _467  and  _468
REMARK  198  A    between atoms: _471  and  _473
REMARK  199  A    between atoms: _473  and  _474
REMARK  200  A    between atoms: _473  and  _476
REMARK  201  A    between atoms: _476  and  _477
REMARK  202  A    between atoms: _480  and  _482
REMARK  203  A    between atoms: _482  and  _483
REMARK  204  A    between atoms: _482  and  _485
REMARK  205  A    between atoms: _485  and  _486
REMARK  206  A    between atoms: _488  and  _490
REMARK  207  A    between atoms: _490  and  _491
REMARK  208  A    between atoms: _490  and  _493
REMARK  209  A    between atoms: _493  and  _494
REMARK  210  A    between atoms: _504  and  _506
REMARK  211  A    between atoms: _506  and  _507
REMARK  212  A    between atoms: _509  and  _511
REMARK  213  A    between atoms: _511  and  _512
REMARK  214  A    between atoms: _511  and  _514
REMARK  215  A    between atoms: _514  and  _515
REMARK  216  A    between atoms: _515  and  _516
REMARK  217  A    between atoms: _519  and  _521
REMARK  218  A    between atoms: _521  and  _522
REMARK  219  A    between atoms: _524  and  _526
REMARK  220  A    between atoms: _526  and  _527
REMARK  221  A    between atoms: _526  and  _529
REMARK  222  A    between atoms: _529  and  _530
REMARK  223  A    between atoms: _531  and  _533
REMARK  224  A    between atoms: _533  and  _534
REMARK  225  A    between atoms: _537  and  _539
REMARK  226  A    between atoms: _539  and  _540
REMARK  227  A    between atoms: _539  and  _542
REMARK  228  A    between atoms: _542  and  _543
REMARK  229  A    between atoms: _543  and  _544
REMARK  230  A    between atoms: _549  and  _551
REMARK  231  A    between atoms: _551  and  _552
REMARK  232  A    between atoms: _551  and  _554
REMARK  233  A    between atoms: _554  and  _555
REMARK  234  A    between atoms: _555  and  _556
REMARK  235  A    between atoms: _556  and  _557
REMARK  236  A    between atoms: _567  and  _568
REMARK  237  A    between atoms: _573  and  _575
REMARK  238  A    between atoms: _575  and  _576
REMARK  239  A    between atoms: _578  and  _580
REMARK  240  A    between atoms: _580  and  _581
REMARK  241  A    between atoms: _580  and  _583
REMARK  242  A    between atoms: _586  and  _588
REMARK  243  A    between atoms: _588  and  _589
REMARK  244  A    between atoms: _588  and  _591
REMARK  245  A    between atoms: _591  and  _592
REMARK  246  A    between atoms: _597  and  _598
REMARK  247  A    between atoms: _600  and  _602
REMARK  248  A    between atoms: _602  and  _603
REMARK  249  A    between atoms: _602  and  _605
REMARK  250  A    between atoms: _605  and  _606
REMARK                            x       y       z     vdW  Elec       q    Type
REMARK                         _______ _______ _______ _____ _____    ______ ____
ROOT
ATOM      1  CA  VAL A   1      21.983  14.767 -30.098  0.00  0.00    +0.133 C 
ENDROOT
BRANCH   1   2
ATOM      2  CB  VAL A   1      22.110  15.036 -31.625  0.00  0.00    +0.023 C 
ATOM      3  CG2 VAL A   1      20.893  15.801 -32.148  0.00  0.00    +0.002 C 
ATOM      4  CG1 VAL A   1      22.325  13.750 -32.410  0.00  0.00    +0.002 C 
ENDBRANCH   1   2
BRANCH   1   5
ATOM      5  N   VAL A   1      23.193  14.203 -29.487  0.00  0.00    -0.239 NA
ATOM      6  H   VAL A   1      23.583  13.320 -29.875  0.00  0.00    +0.142 HD
ENDBRANCH   1   5
BRANCH   1   7
ATOM      7  C   VAL A   1      20.815  13.861 -29.717  0.00  0.00    +0.224 C 
ATOM      8  O   VAL A   1      20.959  12.643 -29.765  0.00  0.00    -0.287 OA
ENDBRANCH   1   7
TORSDOF 3
REMARK  Name = ../refined-set-2016/4x6p/4x6p_pocket.pdb
REMARK  250 active torsions:
REMARK  status: ('A' for Active; 'I' for Inactive)
REMARK    1  A    between atoms: _1  and  _5
REMARK    2  A    between atoms: _5  and  _6
REMARK    3  A    between atoms: _5  and  _8
REMARK    4  A    between atoms: _8  and  _9
REMARK    5  A    between atoms: _12  and  _14
REMARK    6  A    between atoms: _14  and  _15
REMARK    7  A    between atoms: _14  and  _17
REMARK    8  A    between atoms: _20  and  _22
REMARK    9  A    between atoms: _22  and  _23
REMARK   10  A    between atoms: _22  and  _25
REMARK   11  A    between atoms: _25  and  _26
REMARK   12  A    between atoms: _29  and  _31
REMARK   13  A    between atoms: _31  and  _32
REMARK   14  A    between atoms: _31  and  _34
REMARK   15  A    between atoms: _34  and  _35
REMARK   16  A    between atoms: _38  and  _40
REMARK   17  A    between atoms: _40  and  _41
REMARK   18  A    between atoms: _40  and  _43
REMARK   19  A    between atoms: _43  and  _44
REMARK   20  A    between atoms: _49  and  _51
REMARK   21  A    between atoms: _51  and  _52
REMARK   22  A    between atoms: _51  and  _54
REMARK   23  A    between atoms: _54  and  _55
REMARK   24  A    between atoms: _58  and  _60
REMARK   25  A    between atoms: _60  and  _61
REMARK   26  A    between atoms: _60  and  _63
REMARK   27  A    between atoms: _63  and  _64
REMARK   28  A    between atoms: _64  and  _65
REMARK   29  A    between atoms: _70  and  _72
REMARK   30  A    between atoms: _72  and  _73
REMARK   31  A    between atoms: _72  and  _75
REMARK   32  A    between atoms: _75  and  _76
REMARK   33  A    between atoms: _76  and  _77
REMARK   34  A    between atoms: _77  and  _78
REMARK   35  A    between atoms: _87  and  _89
REMARK   36  A    between atoms: _89  and  _90
REMARK   37  A    between atoms: _89  and  _92
REMARK   38  A    between atoms: _92  and  _93
REMARK   39  A    between atoms: _98  and  _100
REMARK   40  A    between atoms: _100  and  _101
REMARK   41  A    between atoms: _100  and  _103
REMARK   42  A    between atoms: _103  and  _104
REMARK   43  A    between atoms: _107  and  _109
REMARK   44  A    between atoms: _109  and  _110
REMARK   45  A    between atoms: _109  and  _112
REMARK   46  A    between atoms: _112  and  _113
REMARK   47  A    between atoms: _113  and  _148
REMARK   48  A    between atoms: _114  and  _116
REMARK   49  A    between atoms: _116  and  _117
REMARK   50  A    between atoms: _119  and  _121
REMARK   51  A    between atoms: _121  and  _122
REMARK   52  A    between atoms: _125  and  _127
REMARK   53  A    between atoms: _127  and  _128
REMARK   54  A    between atoms: _131  and  _133
REMARK   55  A    between atoms: _133  and  _134
REMARK   56  A    between atoms: _133  and  _136
REMARK   57  A    between atoms: _136  and  _137
REMARK   58  A    between atoms: _142  and  _144
REMARK   59  A    between atoms: _144  and  _145
REMARK   60  A    between atoms: _144  and  _147
REMARK   61  A    between atoms: _147  and  _148
REMARK   62  A    between atoms: _149  and  _151
REMARK   63  A    between atoms: _151  and  _152
REMARK   64  A    between atoms: _151  and  _154
REMARK   65  A    between atoms: _154  and  _155
REMARK   66  A    between atoms: _161  and  _163
REMARK   67  A    between atoms: _163  and  _164
REMARK   68  A    between atoms: _163  and  _166
REMARK   69  A    between atoms: _166  and  _167
REMARK   70  A    between atoms: _172  and  _173
REMARK   71  A    between atoms: _175  and  _177
REMARK   72  A    between atoms: _177  and  _178
REMARK   73  A    between atoms: _180  and  _182
REMARK   74  A    between atoms: _182  and  _183
REMARK   75  A    between atoms: _182  and  _185
REMARK   76  A    between atoms: _188  and  _190
REMARK   77  A    between atoms: _190  and  _191
REMARK   78  A    between atoms: _190  and  _193
REMARK   79  A    between atoms: _193  and  _194
REMARK   80  A    between atoms: _194  and  _195
REMARK   81  A    between atoms: _200  and  _202
REMARK   82  A    between atoms: _202  and  _203
REMARK   83  A    between atoms: _202  and  _205
REMARK   84  A    between atoms: _205  and  _206
REMARK   85  A    between atoms: _211  and  _212
REMARK   86  A    between atoms: _214  and  _216
REMARK   87  A    between atoms: _216  and  _217
REMARK   88  A    between atoms: _220  and  _222
REMARK   89  A    between atoms: _222  and  _223
REMARK   90  A    between atoms: _222  and  _225
REMARK   91  A    between atoms: _225  and  _226
REMARK   92  A    between atoms: _229  and  _231
REMARK   93  A    between atoms: _231  and  _232
REMARK   94  A    between atoms: _231  and  _234
REMARK   95  A    between atoms: _237  and  _239
REMARK   96  A    between atoms: _239  and  _240
REMARK   97  A    between atoms: _239  and  _242
REMARK   98  A    between atoms: _242  and  _243
REMARK   99  A    between atoms: _253  and  _255
REMARK  100  A    between atoms: _255  and  _256
REMARK  101  A    between atoms: _258  and  _260
REMARK  102  A    between atoms: _260  and  _261
REMARK  103  A    between atoms: _260  and  _263
REMARK  104  A    between atoms: _263  and  _264
REMARK  105  A    between atoms: _269  and  _270
REMARK  106  A    between atoms: _272  and  _274
REMARK  107  A    between atoms: _274  and  _275
REMARK  108  A    between atoms: _274  and  _277
REMARK  109  A    between atoms: _277  and  _278
REMARK  110  A    between atoms: _278  and  _279
REMARK  111  A    between atoms: _279  and  _280
REMARK  112  A    between atoms: _280  and  _281
REMARK  113  A    between atoms: _285  and  _287
REMARK  114  A    between atoms: _287  and  _288
REMARK  115  A    between atoms: _287  and  _290
REMARK  116  A    between atoms: _290  and  _291
REMARK  117  A    between atoms: _294  and  _296
REMARK  118  A    between atoms: _296  and  _297
REMARK  119  A    between atoms: _296  and  _299
REMARK  120  A    between atoms: _299  and  _300
REMARK  121  A    between atoms: _303  and  _305
REMARK  122  A    between atoms: _305  and  _306
REMARK  123  A    between atoms: _305  and  _308
REMARK  124  A    between atoms: _308  and  _309
REMARK  125  A    between atoms: _309  and  _310
REMARK  126  A    between atoms: _310  and  _311
REMARK  127  A    between atoms: _311  and  _312
REMARK  128  A    between atoms: _316  and  _318
REMARK  129  A    between atoms: _318  and  _319
REMARK  130  A    between atoms: _318  and  _321
REMARK  131  A    between atoms: _321  and  _322
REMARK  132  A    between atoms: _325  and  _327
REMARK  133  A    between atoms: _327  and  _328
REMARK  134  A    between atoms: _327  and  _330
REMARK  135  A    between atoms: _330  and  _331
REMARK  136  A    between atoms: _331  and  _332
REMARK  137  A    between atoms: _337  and  _339
REMARK  138  A    between atoms: _339  and  _340
REMARK  139  A    between atoms: _339  and  _342
REMARK  140  A    between atoms: _342  and  _343
REMARK  141  A    between atoms: _346  and  _348
REMARK  142  A    between atoms: _348  and  _349
REMARK  143  A    between atoms: _348  and  _351
REMARK  144  A    between atoms: _351  and  _352
REMARK  145  A    between atoms: _357  and  _358
REMARK  146  A    between atoms: _360  and  _362
REMARK  147  A    between atoms: _362  and  _363
REMARK  148  A    between atoms: _362  and  _365
REMARK  149  A    between atoms: _365  and  _366
REMARK  150  A    between atoms: _369  and  _371
REMARK  151  A    between atoms: _371  and  _372
REMARK  152  A    between atoms: _371  and  _374
REMARK  153  A    between atoms: _376  and  _378
REMARK  154  A    between atoms: _378  and  _379
REMARK  155  A    between atoms: _382  and  _384
REMARK  156  A    between atoms: _384  and  _385
REMARK  157  A    between atoms: _384  and  _387
REMARK  158  A    between atoms: _387  and  _388
REMARK  159  A    between atoms: _388  and  _389
REMARK  160  A    between atoms: _389  and  _390
REMARK  161  A    between atoms: _390  and  _391
REMARK  162  A    between atoms: _395  and  _397
REMARK  163  A    between atoms: _397  and  _398
REMARK  164  A    between atoms: _397  and  _400
REMARK  165  A    between atoms: _400  and  _401
REMARK  166  A    between atoms: _404  and  _406
REMARK  167  A    between atoms: _406  and  _407
REMARK  168  A    between atoms: _410  and  _412
REMARK  169  A    between atoms: _412  and  _413
REMARK  170  A    between atoms: _412  and  _415
REMARK  171  A    between atoms: _415  and  _416
REMARK  172  A    between atoms: _416  and  _530
REMARK  173  A    between atoms: _417  and  _419
REMARK  174  A    between atoms: _419  and  _420
REMARK  175  A    between atoms: _419  and  _422
REMARK  176  A    between atoms: _422  and  _423
REMARK  177  A    between atoms: _423  and  _424
REMARK  178  A    between atoms: _424  and  _425
REMARK  179  A    between atoms: _425  and  _426
REMARK  180  A    between atoms: _430  and  _432
REMARK  181  A    between atoms: _432  and  _433
REMARK  182  A    between atoms: _435  and  _437
REMARK  183  A    between atoms: _437  and  _438
REMARK  184  A    between atoms: _437  and  _440
REMARK  185  A    between atoms: _440  and  _441
REMARK  186  A    between atoms: _444  and  _446
REMARK  187  A    between atoms: _446  and  _447
REMARK  188  A    between atoms: _446  and  _449
REMARK  189  A    between atoms: _449  and  _450
REMARK  190  A    between atoms: _452  and  _454
REMARK  191  A    between atoms: _454  and  _455
REMARK  192  A    between atoms: _457  and  _459
REMARK  193  A    between atoms: _459  and  _460
REMARK  194  A    between atoms: _462  and  _464
REMARK  195  A    between atoms: _464  and  _465
REMARK  196  A    between atoms: _464  and  _467
REMARK  197  A    between atoms: _467  and  _468
REMARK  198  A    between atoms: _471  and  _473
REMARK  199  A    between atoms: _473  and  _474
REMARK  200  A    between atoms: _473  and  _476
REMARK  201  A    between atoms: _476  and  _477
REMARK  202  A    between atoms: _480  and  _482
REMARK  203  A    between atoms: _482  and  _483
REMARK  204  A    between atoms: _482  and  _485
REMARK  205  A    between atoms: _485  and  _486
REMARK  206  A    between atoms: _488  and  _490
REMARK  207  A    between atoms: _490  and  _491
REMARK  208  A    between atoms: _490  and  _493
REMARK  209  A    between atoms: _493  and  _494
REMARK  210  A    between atoms: _504  and  _506
REMARK  211  A    between atoms: _506  and  _507
REMARK  212  A    between atoms: _509  and  _511
REMARK  213  A    between atoms: _511  and  _512
REMARK  214  A    between atoms: _511  and  _514
REMARK  215  A    between atoms: _514  and  _515
REMARK  216  A    between atoms: _515  and  _516
REMARK  217  A    between atoms: _519  and  _521
REMARK  218  A    between atoms: _521  and  _522
REMARK  219  A    between atoms: _524  and  _526
REMARK  220  A    between atoms: _526  and  _527
REMARK  221  A    between atoms: _526  and  _529
REMARK  222  A    between atoms: _529  and  _530
REMARK  223  A    between atoms: _531  and  _533
REMARK  224  A    between atoms: _533  and  _534
REMARK  225  A    between atoms: _537  and  _539
REMARK  226  A    between atoms: _539  and  _540
REMARK  227  A    between atoms: _539  and  _542
REMARK  228  A    between atoms: _542  and  _543
REMARK  229  A    between atoms: _543  and  _544
REMARK  230  A    between atoms: _549  and  _551
REMARK  231  A    between atoms: _551  and  _552
REMARK  232  A    between atoms: _551  and  _554
REMARK  233  A    between atoms: _554  and  _555
REMARK  234  A    between atoms: _555  and  _556
REMARK  235  A    between atoms: _556  and  _557
REMARK  236  A    between atoms: _567  and  _568
REMARK  237  A    between atoms: _573  and  _575
REMARK  238  A    between atoms: _575  and  _576
REMARK  239  A    between atoms: _578  and  _580
REMARK  240  A    between atoms: _580  and  _581
REMARK  241  A    between atoms: _580  and  _583
REMARK  242  A    between atoms: _586  and  _588
REMARK  243  A    between atoms: _588  and  _589
REMARK  244  A    between atoms: _588  and  _591
REMARK  245  A    between atoms: _591  and  _592
REMARK  246  A    between atoms: _597  and  _598
REMARK  247  A    between atoms: _600  and  _602
REMARK  248  A    between atoms: _602  and  _603
REMARK  249  A    between atoms: _602  and  _605
REMARK  250  A    between atoms: _605  and  _606
REMARK                            x       y       z     vdW  Elec       q    Type
REMARK                         _______ _______ _______ _____ _____    ______ ____
ROOT
ATOM      1  C   TRP A   1      11.837  11.654 -32.960  0.00  0.00    +0.239 C 
ATOM      2  O   TRP A   1      10.855  11.166 -33.531  0.00  0.00    -0.274 OA
ATOM      3  N   GLY A   2      12.855  12.190 -33.627  0.00  0.00    -0.296 N 
ATOM      4  H   GLY A   2      13.678  12.539 -33.095  0.00  0.00    +0.150 HD
ENDROOT
BRANCH   1   5
ATOM      5  CA  TRP A   1      11.932  11.644 -31.438  0.00  0.00    +0.149 C 
BRANCH   5   6
ATOM      6  N   TRP A   1      12.904  12.629 -30.982  0.00  0.00    -0.238 NA
ATOM      7  H   TRP A   1      12.612  13.627 -30.973  0.00  0.00    +0.142 HD
ENDBRANCH   5   6
BRANCH   5   8
ATOM      8  CB  TRP A   1      10.552  11.954 -30.796  0.00  0.00    +0.054 C 
BRANCH   8   9
ATOM      9  CG  TRP A   1      10.478  11.739 -29.303  0.00  0.00    -0.002 A 
ATOM     10  CD2 TRP A   1      10.702  12.716 -28.277  0.00  0.00    +0.013 A 
ATOM     11  CE2 TRP A   1      10.459  12.081 -27.033  0.00  0.00    +0.056 A 
ATOM     12  CZ2 TRP A   1      10.598  12.752 -25.808  0.00  0.00    +0.017 A 
ATOM     13  CH2 TRP A   1      10.958  14.078 -25.852  0.00  0.00    +0.001 A 
ATOM     14  CZ3 TRP A   1      11.203  14.736 -27.068  0.00  0.00    +0.000 A 
ATOM     15  NE1 TRP A   1      10.131  10.775 -27.295  0.00  0.00    -0.352 N 
ATOM     16  HE1 TRP A   1       9.935  10.045 -26.580  0.00  0.00    +0.166 HD
ATOM     17  CE3 TRP A   1      11.079  14.074 -28.282  0.00  0.00    +0.001 A 
ATOM     18  CD1 TRP A   1      10.104  10.588 -28.659  0.00  0.00    +0.068 A 
ENDBRANCH   8   9
ENDBRANCH   5   8
ENDBRANCH   1   5
BRANCH   3  19
ATOM     19  CA  GLY A   2      12.853  12.304 -35.090  0.00  0.00    +0.176 C 
BRANCH  19  20
ATOM     20  C   GLY A   2      13.005  10.999 -35.839  0.00  0.00    +0.243 C 
ATOM     21  O   GLY A   2      13.214   9.946 -35.234  0.00  0.00    -0.273 OA
ATOM     22  N   TYR A   3      12.876  11.060 -37.178  0.00  0.00    -0.298 N 
ATOM     23  H   TYR A   3      12.688  11.990 -37.603  0.00  0.00    +0.150 HD
BRANCH  22  24
ATOM     24  CA  TYR A   3      12.983   9.896 -38.090  0.00  0.00    +0.141 C 
BRANCH  24  25
ATOM     25  C   TYR A   3      14.327   9.175 -37.910  0.00  0.00    +0.227 C 
ATOM     26  O   TYR A   3      15.330   9.824 -37.594  0.00  0.00    -0.286 OA
ENDBRANCH  24  25
BRANCH  24  27
ATOM     27  CB  TYR A   3      12.875  10.377 -39.569  0.00  0.00    +0.054 C 
BRANCH  27  28
ATOM     28  CG  TYR A   3      11.521  10.910 -40.031  0.00  0.00    -0.020 A 
ATOM     29  CD2 TYR A   3      10.522  11.247 -39.113  0.00  0.00    -0.001 A 
ATOM     30  CE2 TYR A   3       9.290  11.751 -39.535  0.00  0.00    +0.036 A 
ATOM     31  CZ  TYR A   3       9.047  11.921 -40.888  0.00  0.00    +0.134 A 
ATOM     32  CE1 TYR A   3      10.032  11.624 -41.815  0.00  0.00    +0.036 A 
ATOM     33  CD1 TYR A   3      11.255  11.110 -41.385  0.00  0.00    -0.001 A 
BRANCH  31  34
ATOM     34  OH  TYR A   3       7.836  12.402 -41.318  0.00  0.00    -0.506 OA
ATOM     35  HH  TYR A   3       7.249  12.562 -40.537  0.00  0.00    +0.292 HD
ENDBRANCH  31  34
ENDBRANCH  27  28
ENDBRANCH  24  27
ENDBRANCH  22  24
ENDBRANCH  19  20
ENDBRANCH   3  19
TORSDOF 11
REMARK  Name = ../refined-set-2016/4x6p/4x6p_pocket.pdb
REMARK  250 active torsions:
REMARK  status: ('A' for Active; 'I' for Inactive)
REMARK    1  A    between atoms: _1  and  _5
REMARK    2  A    between atoms: _5  and  _6
REMARK    3  A    between atoms: _5  and  _8
REMARK    4  A    between atoms: _8  and  _9
REMARK    5  A    between atoms: _12  and  _14
REMARK    6  A    between atoms: _14  and  _15
REMARK    7  A    between atoms: _14  and  _17
REMARK    8  A    between atoms: _20  and  _22
REMARK    9  A    between atoms: _22  and  _23
REMARK   10  A    between atoms: _22  and  _25
REMARK   11  A    between atoms: _25  and  _26
REMARK   12  A    between atoms: _29  and  _31
REMARK   13  A    between atoms: _31  and  _32
REMARK   14  A    between atoms: _31  and  _34
REMARK   15  A    between atoms: _34  and  _35
REMARK   16  A    between atoms: _38  and  _40
REMARK   17  A    between atoms: _40  and  _41
REMARK   18  A    between atoms: _40  and  _43
REMARK   19  A    between atoms: _43  and  _44
REMARK   20  A    between atoms: _49  and  _51
REMARK   21  A    between atoms: _51  and  _52
REMARK   22  A    between atoms: _51  and  _54
REMARK   23  A    between atoms: _54  and  _55
REMARK   24  A    between atoms: _58  and  _60
REMARK   25  A    between atoms: _60  and  _61
REMARK   26  A    between atoms: _60  and  _63
REMARK   27  A    between atoms: _63  and  _64
REMARK   28  A    between atoms: _64  and  _65
REMARK   29  A    between atoms: _70  and  _72
REMARK   30  A    between atoms: _72  and  _73
REMARK   31  A    between atoms: _72  and  _75
REMARK   32  A    between atoms: _75  and  _76
REMARK   33  A    between atoms: _76  and  _77
REMARK   34  A    between atoms: _77  and  _78
REMARK   35  A    between atoms: _87  and  _89
REMARK   36  A    between atoms: _89  and  _90
REMARK   37  A    between atoms: _89  and  _92
REMARK   38  A    between atoms: _92  and  _93
REMARK   39  A    between atoms: _98  and  _100
REMARK   40  A    between atoms: _100  and  _101
REMARK   41  A    between atoms: _100  and  _103
REMARK   42  A    between atoms: _103  and  _104
REMARK   43  A    between atoms: _107  and  _109
REMARK   44  A    between atoms: _109  and  _110
REMARK   45  A    between atoms: _109  and  _112
REMARK   46  A    between atoms: _112  and  _113
REMARK   47  A    between atoms: _113  and  _148
REMARK   48  A    between atoms: _114  and  _116
REMARK   49  A    between atoms: _116  and  _117
REMARK   50  A    between atoms: _119  and  _121
REMARK   51  A    between atoms: _121  and  _122
REMARK   52  A    between atoms: _125  and  _127
REMARK   53  A    between atoms: _127  and  _128
REMARK   54  A    between atoms: _131  and  _133
REMARK   55  A    between atoms: _133  and  _134
REMARK   56  A    between atoms: _133  and  _136
REMARK   57  A    between atoms: _136  and  _137
REMARK   58  A    between atoms: _142  and  _144
REMARK   59  A    between atoms: _144  and  _145
REMARK   60  A    between atoms: _144  and  _147
REMARK   61  A    between atoms: _147  and  _148
REMARK   62  A    between atoms: _149  and  _151
REMARK   63  A    between atoms: _151  and  _152
REMARK   64  A    between atoms: _151  and  _154
REMARK   65  A    between atoms: _154  and  _155
REMARK   66  A    between atoms: _161  and  _163
REMARK   67  A    between atoms: _163  and  _164
REMARK   68  A    between atoms: _163  and  _166
REMARK   69  A    between atoms: _166  and  _167
REMARK   70  A    between atoms: _172  and  _173
REMARK   71  A    between atoms: _175  and  _177
REMARK   72  A    between atoms: _177  and  _178
REMARK   73  A    between atoms: _180  and  _182
REMARK   74  A    between atoms: _182  and  _183
REMARK   75  A    between atoms: _182  and  _185
REMARK   76  A    between atoms: _188  and  _190
REMARK   77  A    between atoms: _190  and  _191
REMARK   78  A    between atoms: _190  and  _193
REMARK   79  A    between atoms: _193  and  _194
REMARK   80  A    between atoms: _194  and  _195
REMARK   81  A    between atoms: _200  and  _202
REMARK   82  A    between atoms: _202  and  _203
REMARK   83  A    between atoms: _202  and  _205
REMARK   84  A    between atoms: _205  and  _206
REMARK   85  A    between atoms: _211  and  _212
REMARK   86  A    between atoms: _214  and  _216
REMARK   87  A    between atoms: _216  and  _217
REMARK   88  A    between atoms: _220  and  _222
REMARK   89  A    between atoms: _222  and  _223
REMARK   90  A    between atoms: _222  and  _225
REMARK   91  A    between atoms: _225  and  _226
REMARK   92  A    between atoms: _229  and  _231
REMARK   93  A    between atoms: _231  and  _232
REMARK   94  A    between atoms: _231  and  _234
REMARK   95  A    between atoms: _237  and  _239
REMARK   96  A    between atoms: _239  and  _240
REMARK   97  A    between atoms: _239  and  _242
REMARK   98  A    between atoms: _242  and  _243
REMARK   99  A    between atoms: _253  and  _255
REMARK  100  A    between atoms: _255  and  _256
REMARK  101  A    between atoms: _258  and  _260
REMARK  102  A    between atoms: _260  and  _261
REMARK  103  A    between atoms: _260  and  _263
REMARK  104  A    between atoms: _263  and  _264
REMARK  105  A    between atoms: _269  and  _270
REMARK  106  A    between atoms: _272  and  _274
REMARK  107  A    between atoms: _274  and  _275
REMARK  108  A    between atoms: _274  and  _277
REMARK  109  A    between atoms: _277  and  _278
REMARK  110  A    between atoms: _278  and  _279
REMARK  111  A    between atoms: _279  and  _280
REMARK  112  A    between atoms: _280  and  _281
REMARK  113  A    between atoms: _285  and  _287
REMARK  114  A    between atoms: _287  and  _288
REMARK  115  A    between atoms: _287  and  _290
REMARK  116  A    between atoms: _290  and  _291
REMARK  117  A    between atoms: _294  and  _296
REMARK  118  A    between atoms: _296  and  _297
REMARK  119  A    between atoms: _296  and  _299
REMARK  120  A    between atoms: _299  and  _300
REMARK  121  A    between atoms: _303  and  _305
REMARK  122  A    between atoms: _305  and  _306
REMARK  123  A    between atoms: _305  and  _308
REMARK  124  A    between atoms: _308  and  _309
REMARK  125  A    between atoms: _309  and  _310
REMARK  126  A    between atoms: _310  and  _311
REMARK  127  A    between atoms: _311  and  _312
REMARK  128  A    between atoms: _316  and  _318
REMARK  129  A    between atoms: _318  and  _319
REMARK  130  A    between atoms: _318  and  _321
REMARK  131  A    between atoms: _321  and  _322
REMARK  132  A    between atoms: _325  and  _327
REMARK  133  A    between atoms: _327  and  _328
REMARK  134  A    between atoms: _327  and  _330
REMARK  135  A    between atoms: _330  and  _331
REMARK  136  A    between atoms: _331  and  _332
REMARK  137  A    between atoms: _337  and  _339
REMARK  138  A    between atoms: _339  and  _340
REMARK  139  A    between atoms: _339  and  _342
REMARK  140  A    between atoms: _342  and  _343
REMARK  141  A    between atoms: _346  and  _348
REMARK  142  A    between atoms: _348  and  _349
REMARK  143  A    between atoms: _348  and  _351
REMARK  144  A    between atoms: _351  and  _352
REMARK  145  A    between atoms: _357  and  _358
REMARK  146  A    between atoms: _360  and  _362
REMARK  147  A    between atoms: _362  and  _363
REMARK  148  A    between atoms: _362  and  _365
REMARK  149  A    between atoms: _365  and  _366
REMARK  150  A    between atoms: _369  and  _371
REMARK  151  A    between atoms: _371  and  _372
REMARK  152  A    between atoms: _371  and  _374
REMARK  153  A    between atoms: _376  and  _378
REMARK  154  A    between atoms: _378  and  _379
REMARK  155  A    between atoms: _382  and  _384
REMARK  156  A    between atoms: _384  and  _385
REMARK  157  A    between atoms: _384  and  _387
REMARK  158  A    between atoms: _387  and  _388
REMARK  159  A    between atoms: _388  and  _389
REMARK  160  A    between atoms: _389  and  _390
REMARK  161  A    between atoms: _390  and  _391
REMARK  162  A    between atoms: _395  and  _397
REMARK  163  A    between atoms: _397  and  _398
REMARK  164  A    between atoms: _397  and  _400
REMARK  165  A    between atoms: _400  and  _401
REMARK  166  A    between atoms: _404  and  _406
REMARK  167  A    between atoms: _406  and  _407
REMARK  168  A    between atoms: _410  and  _412
REMARK  169  A    between atoms: _412  and  _413
REMARK  170  A    between atoms: _412  and  _415
REMARK  171  A    between atoms: _415  and  _416
REMARK  172  A    between atoms: _416  and  _530
REMARK  173  A    between atoms: _417  and  _419
REMARK  174  A    between atoms: _419  and  _420
REMARK  175  A    between atoms: _419  and  _422
REMARK  176  A    between atoms: _422  and  _423
REMARK  177  A    between atoms: _423  and  _424
REMARK  178  A    between atoms: _424  and  _425
REMARK  179  A    between atoms: _425  and  _426
REMARK  180  A    between atoms: _430  and  _432
REMARK  181  A    between atoms: _432  and  _433
REMARK  182  A    between atoms: _435  and  _437
REMARK  183  A    between atoms: _437  and  _438
REMARK  184  A    between atoms: _437  and  _440
REMARK  185  A    between atoms: _440  and  _441
REMARK  186  A    between atoms: _444  and  _446
REMARK  187  A    between atoms: _446  and  _447
REMARK  188  A    between atoms: _446  and  _449
REMARK  189  A    between atoms: _449  and  _450
REMARK  190  A    between atoms: _452  and  _454
REMARK  191  A    between atoms: _454  and  _455
REMARK  192  A    between atoms: _457  and  _459
REMARK  193  A    between atoms: _459  and  _460
REMARK  194  A    between atoms: _462  and  _464
REMARK  195  A    between atoms: _464  and  _465
REMARK  196  A    between atoms: _464  and  _467
REMARK  197  A    between atoms: _467  and  _468
REMARK  198  A    between atoms: _471  and  _473
REMARK  199  A    between atoms: _473  and  _474
REMARK  200  A    between atoms: _473  and  _476
REMARK  201  A    between atoms: _476  and  _477
REMARK  202  A    between atoms: _480  and  _482
REMARK  203  A    between atoms: _482  and  _483
REMARK  204  A    between atoms: _482  and  _485
REMARK  205  A    between atoms: _485  and  _486
REMARK  206  A    between atoms: _488  and  _490
REMARK  207  A    between atoms: _490  and  _491
REMARK  208  A    between atoms: _490  and  _493
REMARK  209  A    between atoms: _493  and  _494
REMARK  210  A    between atoms: _504  and  _506
REMARK  211  A    between atoms: _506  and  _507
REMARK  212  A    between atoms: _509  and  _511
REMARK  213  A    between atoms: _511  and  _512
REMARK  214  A    between atoms: _511  and  _514
REMARK  215  A    between atoms: _514  and  _515
REMARK  216  A    between atoms: _515  and  _516
REMARK  217  A    between atoms: _519  and  _521
REMARK  218  A    between atoms: _521  and  _522
REMARK  219  A    between atoms: _524  and  _526
REMARK  220  A    between atoms: _526  and  _527
REMARK  221  A    between atoms: _526  and  _529
REMARK  222  A    between atoms: _529  and  _530
REMARK  223  A    between atoms: _531  and  _533
REMARK  224  A    between atoms: _533  and  _534
REMARK  225  A    between atoms: _537  and  _539
REMARK  226  A    between atoms: _539  and  _540
REMARK  227  A    between atoms: _539  and  _542
REMARK  228  A    between atoms: _542  and  _543
REMARK  229  A    between atoms: _543  and  _544
REMARK  230  A    between atoms: _549  and  _551
REMARK  231  A    between atoms: _551  and  _552
REMARK  232  A    between atoms: _551  and  _554
REMARK  233  A    between atoms: _554  and  _555
REMARK  234  A    between atoms: _555  and  _556
REMARK  235  A    between atoms: _556  and  _557
REMARK  236  A    between atoms: _567  and  _568
REMARK  237  A    between atoms: _573  and  _575
REMARK  238  A    between atoms: _575  and  _576
REMARK  239  A    between atoms: _578  and  _580
REMARK  240  A    between atoms: _580  and  _581
REMARK  241  A    between atoms: _580  and  _583
REMARK  242  A    between atoms: _586  and  _588
REMARK  243  A    between atoms: _588  and  _589
REMARK  244  A    between atoms: _588  and  _591
REMARK  245  A    between atoms: _591  and  _592
REMARK  246  A    between atoms: _597  and  _598
REMARK  247  A    between atoms: _600  and  _602
REMARK  248  A    between atoms: _602  and  _603
REMARK  249  A    between atoms: _602  and  _605
REMARK  250  A    between atoms: _605  and  _606
REMARK                            x       y       z     vdW  Elec       q    Type
REMARK                         _______ _______ _______ _____ _____    ______ ____
ROOT
ATOM      1  CA  LYS A   1      15.876   7.440 -41.952  0.00  0.00    +0.145 C 
ENDROOT
BRANCH   1   2
ATOM      2  C   LYS A   1      14.985   8.483 -42.632  0.00  0.00    +0.238 C 
ATOM      3  O   LYS A   1      13.967   8.850 -42.043  0.00  0.00    -0.274 OA
ATOM      4  N   LEU A   2      15.358   8.989 -43.833  0.00  0.00    -0.298 N 
ATOM      5  H   LEU A   2      16.196   8.596 -44.307  0.00  0.00    +0.150 HD
BRANCH   4   6
ATOM      6  CA  LEU A   2      14.611  10.082 -44.490  0.00  0.00    +0.137 C 
BRANCH   6   7
ATOM      7  C   LEU A   2      13.113   9.835 -44.693  0.00  0.00    +0.227 C 
ATOM      8  O   LEU A   2      12.325  10.757 -44.480  0.00  0.00    -0.286 OA
ENDBRANCH   6   7
BRANCH   6   9
ATOM      9  CB  LEU A   2      15.232  10.557 -45.801  0.00  0.00    +0.028 C 
BRANCH   9  10
ATOM     10  CG  LEU A   2      16.110  11.834 -45.667  0.00  0.00    +0.002 C 
ATOM     11  CD2 LEU A   2      15.276  13.074 -45.354  0.00  0.00    +0.000 C 
ATOM     12  CD1 LEU A   2      16.962  12.026 -46.870  0.00  0.00    +0.000 C 
ENDBRANCH   9  10
ENDBRANCH   6   9
ENDBRANCH   4   6
ENDBRANCH   1   2
BRANCH   1  13
ATOM     13  N   LYS A   1      15.496   7.414 -40.523  0.00  0.00    -0.238 NA
ATOM     14  H   LYS A   1      14.560   7.801 -40.287  0.00  0.00    +0.142 HD
ENDBRANCH   1  13
BRANCH   1  15
ATOM     15  CB  LYS A   1      15.760   6.044 -42.605  0.00  0.00    +0.026 C 
BRANCH  15  16
ATOM     16  CG  LYS A   1      14.368   5.422 -42.534  0.00  0.00    -0.000 C 
BRANCH  16  17
ATOM     17  CD  LYS A   1      14.378   3.944 -42.877  0.00  0.00    -0.024 C 
BRANCH  17  18
ATOM     18  CE  LYS A   1      12.983   3.369 -42.842  0.00  0.00    -0.086 C 
BRANCH  18  19
ATOM     19  NZ  LYS A   1      12.965   1.937 -43.243  0.00  0.00    +0.380 N 
ATOM     20  HZ1 LYS A   1      13.561   1.388 -42.591  0.00  0.00    -0.089 HD
ATOM     21  HZ2 LYS A   1      11.989   1.580 -43.206  0.00  0.00    -0.089 HD
ATOM     22  HZ3 LYS A   1      13.332   1.845 -44.212  0.00  0.00    -0.089 HD
ENDBRANCH  18  19
ENDBRANCH  17  18
ENDBRANCH  16  17
ENDBRANCH  15  16
ENDBRANCH   1  15
TORSDOF 11
REMARK  Name = ../refined-set-2016/4x6p/4x6p_pocket.pdb
REMARK  250 active torsions:
REMARK  status: ('A' for Active; 'I' for Inactive)
REMARK    1  A    between atoms: _1  and  _5
REMARK    2  A    between atoms: _5  and  _6
REMARK    3  A    between atoms: _5  and  _8
REMARK    4  A    between atoms: _8  and  _9
REMARK    5  A    between atoms: _12  and  _14
REMARK    6  A    between atoms: _14  and  _15
REMARK    7  A    between atoms: _14  and  _17
REMARK    8  A    between atoms: _20  and  _22
REMARK    9  A    between atoms: _22  and  _23
REMARK   10  A    between atoms: _22  and  _25
REMARK   11  A    between atoms: _25  and  _26
REMARK   12  A    between atoms: _29  and  _31
REMARK   13  A    between atoms: _31  and  _32
REMARK   14  A    between atoms: _31  and  _34
REMARK   15  A    between atoms: _34  and  _35
REMARK   16  A    between atoms: _38  and  _40
REMARK   17  A    between atoms: _40  and  _41
REMARK   18  A    between atoms: _40  and  _43
REMARK   19  A    between atoms: _43  and  _44
REMARK   20  A    between atoms: _49  and  _51
REMARK   21  A    between atoms: _51  and  _52
REMARK   22  A    between atoms: _51  and  _54
REMARK   23  A    between atoms: _54  and  _55
REMARK   24  A    between atoms: _58  and  _60
REMARK   25  A    between atoms: _60  and  _61
REMARK   26  A    between atoms: _60  and  _63
REMARK   27  A    between atoms: _63  and  _64
REMARK   28  A    between atoms: _64  and  _65
REMARK   29  A    between atoms: _70  and  _72
REMARK   30  A    between atoms: _72  and  _73
REMARK   31  A    between atoms: _72  and  _75
REMARK   32  A    between atoms: _75  and  _76
REMARK   33  A    between atoms: _76  and  _77
REMARK   34  A    between atoms: _77  and  _78
REMARK   35  A    between atoms: _87  and  _89
REMARK   36  A    between atoms: _89  and  _90
REMARK   37  A    between atoms: _89  and  _92
REMARK   38  A    between atoms: _92  and  _93
REMARK   39  A    between atoms: _98  and  _100
REMARK   40  A    between atoms: _100  and  _101
REMARK   41  A    between atoms: _100  and  _103
REMARK   42  A    between atoms: _103  and  _104
REMARK   43  A    between atoms: _107  and  _109
REMARK   44  A    between atoms: _109  and  _110
REMARK   45  A    between atoms: _109  and  _112
REMARK   46  A    between atoms: _112  and  _113
REMARK   47  A    between atoms: _113  and  _148
REMARK   48  A    between atoms: _114  and  _116
REMARK   49  A    between atoms: _116  and  _117
REMARK   50  A    between atoms: _119  and  _121
REMARK   51  A    between atoms: _121  and  _122
REMARK   52  A    between atoms: _125  and  _127
REMARK   53  A    between atoms: _127  and  _128
REMARK   54  A    between atoms: _131  and  _133
REMARK   55  A    between atoms: _133  and  _134
REMARK   56  A    between atoms: _133  and  _136
REMARK   57  A    between atoms: _136  and  _137
REMARK   58  A    between atoms: _142  and  _144
REMARK   59  A    between atoms: _144  and  _145
REMARK   60  A    between atoms: _144  and  _147
REMARK   61  A    between atoms: _147  and  _148
REMARK   62  A    between atoms: _149  and  _151
REMARK   63  A    between atoms: _151  and  _152
REMARK   64  A    between atoms: _151  and  _154
REMARK   65  A    between atoms: _154  and  _155
REMARK   66  A    between atoms: _161  and  _163
REMARK   67  A    between atoms: _163  and  _164
REMARK   68  A    between atoms: _163  and  _166
REMARK   69  A    between atoms: _166  and  _167
REMARK   70  A    between atoms: _172  and  _173
REMARK   71  A    between atoms: _175  and  _177
REMARK   72  A    between atoms: _177  and  _178
REMARK   73  A    between atoms: _180  and  _182
REMARK   74  A    between atoms: _182  and  _183
REMARK   75  A    between atoms: _182  and  _185
REMARK   76  A    between atoms: _188  and  _190
REMARK   77  A    between atoms: _190  and  _191
REMARK   78  A    between atoms: _190  and  _193
REMARK   79  A    between atoms: _193  and  _194
REMARK   80  A    between atoms: _194  and  _195
REMARK   81  A    between atoms: _200  and  _202
REMARK   82  A    between atoms: _202  and  _203
REMARK   83  A    between atoms: _202  and  _205
REMARK   84  A    between atoms: _205  and  _206
REMARK   85  A    between atoms: _211  and  _212
REMARK   86  A    between atoms: _214  and  _216
REMARK   87  A    between atoms: _216  and  _217
REMARK   88  A    between atoms: _220  and  _222
REMARK   89  A    between atoms: _222  and  _223
REMARK   90  A    between atoms: _222  and  _225
REMARK   91  A    between atoms: _225  and  _226
REMARK   92  A    between atoms: _229  and  _231
REMARK   93  A    between atoms: _231  and  _232
REMARK   94  A    between atoms: _231  and  _234
REMARK   95  A    between atoms: _237  and  _239
REMARK   96  A    between atoms: _239  and  _240
REMARK   97  A    between atoms: _239  and  _242
REMARK   98  A    between atoms: _242  and  _243
REMARK   99  A    between atoms: _253  and  _255
REMARK  100  A    between atoms: _255  and  _256
REMARK  101  A    between atoms: _258  and  _260
REMARK  102  A    between atoms: _260  and  _261
REMARK  103  A    between atoms: _260  and  _263
REMARK  104  A    between atoms: _263  and  _264
REMARK  105  A    between atoms: _269  and  _270
REMARK  106  A    between atoms: _272  and  _274
REMARK  107  A    between atoms: _274  and  _275
REMARK  108  A    between atoms: _274  and  _277
REMARK  109  A    between atoms: _277  and  _278
REMARK  110  A    between atoms: _278  and  _279
REMARK  111  A    between atoms: _279  and  _280
REMARK  112  A    between atoms: _280  and  _281
REMARK  113  A    between atoms: _285  and  _287
REMARK  114  A    between atoms: _287  and  _288
REMARK  115  A    between atoms: _287  and  _290
REMARK  116  A    between atoms: _290  and  _291
REMARK  117  A    between atoms: _294  and  _296
REMARK  118  A    between atoms: _296  and  _297
REMARK  119  A    between atoms: _296  and  _299
REMARK  120  A    between atoms: _299  and  _300
REMARK  121  A    between atoms: _303  and  _305
REMARK  122  A    between atoms: _305  and  _306
REMARK  123  A    between atoms: _305  and  _308
REMARK  124  A    between atoms: _308  and  _309
REMARK  125  A    between atoms: _309  and  _310
REMARK  126  A    between atoms: _310  and  _311
REMARK  127  A    between atoms: _311  and  _312
REMARK  128  A    between atoms: _316  and  _318
REMARK  129  A    between atoms: _318  and  _319
REMARK  130  A    between atoms: _318  and  _321
REMARK  131  A    between atoms: _321  and  _322
REMARK  132  A    between atoms: _325  and  _327
REMARK  133  A    between atoms: _327  and  _328
REMARK  134  A    between atoms: _327  and  _330
REMARK  135  A    between atoms: _330  and  _331
REMARK  136  A    between atoms: _331  and  _332
REMARK  137  A    between atoms: _337  and  _339
REMARK  138  A    between atoms: _339  and  _340
REMARK  139  A    between atoms: _339  and  _342
REMARK  140  A    between atoms: _342  and  _343
REMARK  141  A    between atoms: _346  and  _348
REMARK  142  A    between atoms: _348  and  _349
REMARK  143  A    between atoms: _348  and  _351
REMARK  144  A    between atoms: _351  and  _352
REMARK  145  A    between atoms: _357  and  _358
REMARK  146  A    between atoms: _360  and  _362
REMARK  147  A    between atoms: _362  and  _363
REMARK  148  A    between atoms: _362  and  _365
REMARK  149  A    between atoms: _365  and  _366
REMARK  150  A    between atoms: _369  and  _371
REMARK  151  A    between atoms: _371  and  _372
REMARK  152  A    between atoms: _371  and  _374
REMARK  153  A    between atoms: _376  and  _378
REMARK  154  A    between atoms: _378  and  _379
REMARK  155  A    between atoms: _382  and  _384
REMARK  156  A    between atoms: _384  and  _385
REMARK  157  A    between atoms: _384  and  _387
REMARK  158  A    between atoms: _387  and  _388
REMARK  159  A    between atoms: _388  and  _389
REMARK  160  A    between atoms: _389  and  _390
REMARK  161  A    between atoms: _390  and  _391
REMARK  162  A    between atoms: _395  and  _397
REMARK  163  A    between atoms: _397  and  _398
REMARK  164  A    between atoms: _397  and  _400
REMARK  165  A    between atoms: _400  and  _401
REMARK  166  A    between atoms: _404  and  _406
REMARK  167  A    between atoms: _406  and  _407
REMARK  168  A    between atoms: _410  and  _412
REMARK  169  A    between atoms: _412  and  _413
REMARK  170  A    between atoms: _412  and  _415
REMARK  171  A    between atoms: _415  and  _416
REMARK  172  A    between atoms: _416  and  _530
REMARK  173  A    between atoms: _417  and  _419
REMARK  174  A    between atoms: _419  and  _420
REMARK  175  A    between atoms: _419  and  _422
REMARK  176  A    between atoms: _422  and  _423
REMARK  177  A    between atoms: _423  and  _424
REMARK  178  A    between atoms: _424  and  _425
REMARK  179  A    between atoms: _425  and  _426
REMARK  180  A    between atoms: _430  and  _432
REMARK  181  A    between atoms: _432  and  _433
REMARK  182  A    between atoms: _435  and  _437
REMARK  183  A    between atoms: _437  and  _438
REMARK  184  A    between atoms: _437  and  _440
REMARK  185  A    between atoms: _440  and  _441
REMARK  186  A    between atoms: _444  and  _446
REMARK  187  A    between atoms: _446  and  _447
REMARK  188  A    between atoms: _446  and  _449
REMARK  189  A    between atoms: _449  and  _450
REMARK  190  A    between atoms: _452  and  _454
REMARK  191  A    between atoms: _454  and  _455
REMARK  192  A    between atoms: _457  and  _459
REMARK  193  A    between atoms: _459  and  _460
REMARK  194  A    between atoms: _462  and  _464
REMARK  195  A    between atoms: _464  and  _465
REMARK  196  A    between atoms: _464  and  _467
REMARK  197  A    between atoms: _467  and  _468
REMARK  198  A    between atoms: _471  and  _473
REMARK  199  A    between atoms: _473  and  _474
REMARK  200  A    between atoms: _473  and  _476
REMARK  201  A    between atoms: _476  and  _477
REMARK  202  A    between atoms: _480  and  _482
REMARK  203  A    between atoms: _482  and  _483
REMARK  204  A    between atoms: _482  and  _485
REMARK  205  A    between atoms: _485  and  _486
REMARK  206  A    between atoms: _488  and  _490
REMARK  207  A    between atoms: _490  and  _491
REMARK  208  A    between atoms: _490  and  _493
REMARK  209  A    between atoms: _493  and  _494
REMARK  210  A    between atoms: _504  and  _506
REMARK  211  A    between atoms: _506  and  _507
REMARK  212  A    between atoms: _509  and  _511
REMARK  213  A    between atoms: _511  and  _512
REMARK  214  A    between atoms: _511  and  _514
REMARK  215  A    between atoms: _514  and  _515
REMARK  216  A    between atoms: _515  and  _516
REMARK  217  A    between atoms: _519  and  _521
REMARK  218  A    between atoms: _521  and  _522
REMARK  219  A    between atoms: _524  and  _526
REMARK  220  A    between atoms: _526  and  _527
REMARK  221  A    between atoms: _526  and  _529
REMARK  222  A    between atoms: _529  and  _530
REMARK  223  A    between atoms: _531  and  _533
REMARK  224  A    between atoms: _533  and  _534
REMARK  225  A    between atoms: _537  and  _539
REMARK  226  A    between atoms: _539  and  _540
REMARK  227  A    between atoms: _539  and  _542
REMARK  228  A    between atoms: _542  and  _543
REMARK  229  A    between atoms: _543  and  _544
REMARK  230  A    between atoms: _549  and  _551
REMARK  231  A    between atoms: _551  and  _552
REMARK  232  A    between atoms: _551  and  _554
REMARK  233  A    between atoms: _554  and  _555
REMARK  234  A    between atoms: _555  and  _556
REMARK  235  A    between atoms: _556  and  _557
REMARK  236  A    between atoms: _567  and  _568
REMARK  237  A    between atoms: _573  and  _575
REMARK  238  A    between atoms: _575  and  _576
REMARK  239  A    between atoms: _578  and  _580
REMARK  240  A    between atoms: _580  and  _581
REMARK  241  A    between atoms: _580  and  _583
REMARK  242  A    between atoms: _586  and  _588
REMARK  243  A    between atoms: _588  and  _589
REMARK  244  A    between atoms: _588  and  _591
REMARK  245  A    between atoms: _591  and  _592
REMARK  246  A    between atoms: _597  and  _598
REMARK  247  A    between atoms: _600  and  _602
REMARK  248  A    between atoms: _602  and  _603
REMARK  249  A    between atoms: _602  and  _605
REMARK  250  A    between atoms: _605  and  _606
REMARK                            x       y       z     vdW  Elec       q    Type
REMARK                         _______ _______ _______ _____ _____    ______ ____
ROOT
ATOM      1  C   LYS A   2       8.481   8.865 -37.684  0.00  0.00    +0.241 C 
ATOM      2  N   ILE A   3       7.845   9.714 -36.891  0.00  0.00    -0.297 N 
ATOM      3  H   ILE A   3       6.963  10.142 -37.239  0.00  0.00    +0.150 HD
ATOM      4  O   LYS A   2       9.584   8.364 -37.405  0.00  0.00    -0.273 OA
ENDROOT
BRANCH   2   5
ATOM      5  CA  ILE A   3       8.309  10.086 -35.554  0.00  0.00    +0.149 C 
BRANCH   5   6
ATOM      6  C   ILE A   3       8.469   8.826 -34.708  0.00  0.00    +0.241 C 
ATOM      7  N   GLN A   4       9.586   8.743 -33.987  0.00  0.00    -0.298 N 
ATOM      8  H   GLN A   4      10.283   9.512 -34.051  0.00  0.00    +0.150 HD
ATOM      9  O   ILE A   3       7.603   7.948 -34.716  0.00  0.00    -0.273 OA
BRANCH   7  10
ATOM     10  CA  GLN A   4       9.865   7.613 -33.113  0.00  0.00    +0.137 C 
BRANCH  10  11
ATOM     11  C   GLN A   4       9.082   7.737 -31.819  0.00  0.00    +0.227 C 
ATOM     12  O   GLN A   4       8.903   8.845 -31.306  0.00  0.00    -0.286 OA
ENDBRANCH  10  11
BRANCH  10  13
ATOM     13  CB  GLN A   4      11.376   7.483 -32.860  0.00  0.00    +0.037 C 
BRANCH  13  14
ATOM     14  CG  GLN A   4      12.137   7.093 -34.133  0.00  0.00    +0.087 C 
BRANCH  14  15
ATOM     15  CD  GLN A   4      11.522   5.893 -34.819  0.00  0.00    +0.219 C 
ATOM     16  OE1 GLN A   4      11.646   4.772 -34.357  0.00  0.00    -0.275 OA
ATOM     17  NE2 GLN A   4      10.775   6.105 -35.887  0.00  0.00    -0.329 N 
ATOM     18 HE21 GLN A   4      10.678   7.067 -36.271  0.00  0.00    +0.145 HD
ATOM     19 HE22 GLN A   4      10.284   5.310 -36.344  0.00  0.00    +0.145 HD
ENDBRANCH  14  15
ENDBRANCH  13  14
ENDBRANCH  10  13
ENDBRANCH   7  10
ENDBRANCH   5   6
BRANCH   5  20
ATOM     20  CB  ILE A   3       7.296  11.105 -34.943  0.00  0.00    +0.027 C 
ATOM     21  CG2 ILE A   3       7.458  11.323 -33.407  0.00  0.00    +0.002 C 
BRANCH  20  22
ATOM     22  CG1 ILE A   3       7.338  12.441 -35.720  0.00  0.00    +0.002 C 
ATOM     23  CD1 ILE A   3       8.716  13.183 -35.809  0.00  0.00    +0.000 C 
ENDBRANCH  20  22
ENDBRANCH   5  20
ENDBRANCH   2   5
BRANCH   1  24
ATOM     24  CA  LYS A   2       7.793   8.544 -39.009  0.00  0.00    +0.149 C 
BRANCH  24  26
ATOM     25  C   ASP A   1       8.853   8.057 -41.170  0.00  0.00    +0.239 C 
ATOM     26  N   LYS A   2       8.776   7.904 -39.857  0.00  0.00    -0.297 N 
ATOM     27  H   LYS A   2       9.472   7.279 -39.402  0.00  0.00    +0.150 HD
ATOM     28  O   ASP A   1       8.042   8.727 -41.822  0.00  0.00    -0.274 OA
BRANCH  25  29
ATOM     29  CA  ASP A   1       9.999   7.329 -41.837  0.00  0.00    +0.156 C 
BRANCH  29  30
ATOM     30  N   ASP A   1      10.352   8.041 -43.044  0.00  0.00    -0.238 NA
ATOM     31  H   ASP A   1      10.182   9.066 -43.086  0.00  0.00    +0.142 HD
ENDBRANCH  29  30
BRANCH  29  32
ATOM     32  CB  ASP A   1      11.254   7.256 -40.912  0.00  0.00    +0.140 C 
BRANCH  32  33
ATOM     33  CG  ASP A   1      11.302   6.147 -39.865  0.00  0.00    +0.367 C 
ATOM     34  OD2 ASP A   1      12.168   6.220 -38.955  0.00  0.00    -0.246 OA
ATOM     35  OD1 ASP A   1      10.460   5.229 -39.932  0.00  0.00    -0.246 OA
ENDBRANCH  32  33
ENDBRANCH  29  32
ENDBRANCH  25  29
ENDBRANCH  24  26
BRANCH  24  36
ATOM     36  CB  LYS A   2       6.560   7.634 -38.804  0.00  0.00    +0.029 C 
BRANCH  36  37
ATOM     37  CG  LYS A   2       6.845   6.254 -38.240  0.00  0.00    +0.000 C 
BRANCH  37  38
ATOM     38  CD  LYS A   2       5.558   5.454 -38.109  0.00  0.00    -0.024 C 
BRANCH  38  39
ATOM     39  CE  LYS A   2       5.781   4.118 -37.441  0.00  0.00    -0.086 C 
BRANCH  39  40
ATOM     40  NZ  LYS A   2       4.512   3.353 -37.295  0.00  0.00    +0.380 N 
ATOM     41  HZ1 LYS A   2       3.843   3.900 -36.716  0.00  0.00    -0.089 HD
ATOM     42  HZ2 LYS A   2       4.709   2.443 -36.832  0.00  0.00    -0.089 HD
ATOM     43  HZ3 LYS A   2       4.101   3.184 -38.235  0.00  0.00    -0.089 HD
ENDBRANCH  39  40
ENDBRANCH  38  39
ENDBRANCH  37  38
ENDBRANCH  36  37
ENDBRANCH  24  36
ENDBRANCH   1  24
TORSDOF 20
REMARK  Name = ../refined-set-2016/4x6p/4x6p_pocket.pdb
REMARK  250 active torsions:
REMARK  status: ('A' for Active; 'I' for Inactive)
REMARK    1  A    between atoms: _1  and  _5
REMARK    2  A    between atoms: _5  and  _6
REMARK    3  A    between atoms: _5  and  _8
REMARK    4  A    between atoms: _8  and  _9
REMARK    5  A    between atoms: _12  and  _14
REMARK    6  A    between atoms: _14  and  _15
REMARK    7  A    between atoms: _14  and  _17
REMARK    8  A    between atoms: _20  and  _22
REMARK    9  A    between atoms: _22  and  _23
REMARK   10  A    between atoms: _22  and  _25
REMARK   11  A    between atoms: _25  and  _26
REMARK   12  A    between atoms: _29  and  _31
REMARK   13  A    between atoms: _31  and  _32
REMARK   14  A    between atoms: _31  and  _34
REMARK   15  A    between atoms: _34  and  _35
REMARK   16  A    between atoms: _38  and  _40
REMARK   17  A    between atoms: _40  and  _41
REMARK   18  A    between atoms: _40  and  _43
REMARK   19  A    between atoms: _43  and  _44
REMARK   20  A    between atoms: _49  and  _51
REMARK   21  A    between atoms: _51  and  _52
REMARK   22  A    between atoms: _51  and  _54
REMARK   23  A    between atoms: _54  and  _55
REMARK   24  A    between atoms: _58  and  _60
REMARK   25  A    between atoms: _60  and  _61
REMARK   26  A    between atoms: _60  and  _63
REMARK   27  A    between atoms: _63  and  _64
REMARK   28  A    between atoms: _64  and  _65
REMARK   29  A    between atoms: _70  and  _72
REMARK   30  A    between atoms: _72  and  _73
REMARK   31  A    between atoms: _72  and  _75
REMARK   32  A    between atoms: _75  and  _76
REMARK   33  A    between atoms: _76  and  _77
REMARK   34  A    between atoms: _77  and  _78
REMARK   35  A    between atoms: _87  and  _89
REMARK   36  A    between atoms: _89  and  _90
REMARK   37  A    between atoms: _89  and  _92
REMARK   38  A    between atoms: _92  and  _93
REMARK   39  A    between atoms: _98  and  _100
REMARK   40  A    between atoms: _100  and  _101
REMARK   41  A    between atoms: _100  and  _103
REMARK   42  A    between atoms: _103  and  _104
REMARK   43  A    between atoms: _107  and  _109
REMARK   44  A    between atoms: _109  and  _110
REMARK   45  A    between atoms: _109  and  _112
REMARK   46  A    between atoms: _112  and  _113
REMARK   47  A    between atoms: _113  and  _148
REMARK   48  A    between atoms: _114  and  _116
REMARK   49  A    between atoms: _116  and  _117
REMARK   50  A    between atoms: _119  and  _121
REMARK   51  A    between atoms: _121  and  _122
REMARK   52  A    between atoms: _125  and  _127
REMARK   53  A    between atoms: _127  and  _128
REMARK   54  A    between atoms: _131  and  _133
REMARK   55  A    between atoms: _133  and  _134
REMARK   56  A    between atoms: _133  and  _136
REMARK   57  A    between atoms: _136  and  _137
REMARK   58  A    between atoms: _142  and  _144
REMARK   59  A    between atoms: _144  and  _145
REMARK   60  A    between atoms: _144  and  _147
REMARK   61  A    between atoms: _147  and  _148
REMARK   62  A    between atoms: _149  and  _151
REMARK   63  A    between atoms: _151  and  _152
REMARK   64  A    between atoms: _151  and  _154
REMARK   65  A    between atoms: _154  and  _155
REMARK   66  A    between atoms: _161  and  _163
REMARK   67  A    between atoms: _163  and  _164
REMARK   68  A    between atoms: _163  and  _166
REMARK   69  A    between atoms: _166  and  _167
REMARK   70  A    between atoms: _172  and  _173
REMARK   71  A    between atoms: _175  and  _177
REMARK   72  A    between atoms: _177  and  _178
REMARK   73  A    between atoms: _180  and  _182
REMARK   74  A    between atoms: _182  and  _183
REMARK   75  A    between atoms: _182  and  _185
REMARK   76  A    between atoms: _188  and  _190
REMARK   77  A    between atoms: _190  and  _191
REMARK   78  A    between atoms: _190  and  _193
REMARK   79  A    between atoms: _193  and  _194
REMARK   80  A    between atoms: _194  and  _195
REMARK   81  A    between atoms: _200  and  _202
REMARK   82  A    between atoms: _202  and  _203
REMARK   83  A    between atoms: _202  and  _205
REMARK   84  A    between atoms: _205  and  _206
REMARK   85  A    between atoms: _211  and  _212
REMARK   86  A    between atoms: _214  and  _216
REMARK   87  A    between atoms: _216  and  _217
REMARK   88  A    between atoms: _220  and  _222
REMARK   89  A    between atoms: _222  and  _223
REMARK   90  A    between atoms: _222  and  _225
REMARK   91  A    between atoms: _225  and  _226
REMARK   92  A    between atoms: _229  and  _231
REMARK   93  A    between atoms: _231  and  _232
REMARK   94  A    between atoms: _231  and  _234
REMARK   95  A    between atoms: _237  and  _239
REMARK   96  A    between atoms: _239  and  _240
REMARK   97  A    between atoms: _239  and  _242
REMARK   98  A    between atoms: _242  and  _243
REMARK   99  A    between atoms: _253  and  _255
REMARK  100  A    between atoms: _255  and  _256
REMARK  101  A    between atoms: _258  and  _260
REMARK  102  A    between atoms: _260  and  _261
REMARK  103  A    between atoms: _260  and  _263
REMARK  104  A    between atoms: _263  and  _264
REMARK  105  A    between atoms: _269  and  _270
REMARK  106  A    between atoms: _272  and  _274
REMARK  107  A    between atoms: _274  and  _275
REMARK  108  A    between atoms: _274  and  _277
REMARK  109  A    between atoms: _277  and  _278
REMARK  110  A    between atoms: _278  and  _279
REMARK  111  A    between atoms: _279  and  _280
REMARK  112  A    between atoms: _280  and  _281
REMARK  113  A    between atoms: _285  and  _287
REMARK  114  A    between atoms: _287  and  _288
REMARK  115  A    between atoms: _287  and  _290
REMARK  116  A    between atoms: _290  and  _291
REMARK  117  A    between atoms: _294  and  _296
REMARK  118  A    between atoms: _296  and  _297
REMARK  119  A    between atoms: _296  and  _299
REMARK  120  A    between atoms: _299  and  _300
REMARK  121  A    between atoms: _303  and  _305
REMARK  122  A    between atoms: _305  and  _306
REMARK  123  A    between atoms: _305  and  _308
REMARK  124  A    between atoms: _308  and  _309
REMARK  125  A    between atoms: _309  and  _310
REMARK  126  A    between atoms: _310  and  _311
REMARK  127  A    between atoms: _311  and  _312
REMARK  128  A    between atoms: _316  and  _318
REMARK  129  A    between atoms: _318  and  _319
REMARK  130  A    between atoms: _318  and  _321
REMARK  131  A    between atoms: _321  and  _322
REMARK  132  A    between atoms: _325  and  _327
REMARK  133  A    between atoms: _327  and  _328
REMARK  134  A    between atoms: _327  and  _330
REMARK  135  A    between atoms: _330  and  _331
REMARK  136  A    between atoms: _331  and  _332
REMARK  137  A    between atoms: _337  and  _339
REMARK  138  A    between atoms: _339  and  _340
REMARK  139  A    between atoms: _339  and  _342
REMARK  140  A    between atoms: _342  and  _343
REMARK  141  A    between atoms: _346  and  _348
REMARK  142  A    between atoms: _348  and  _349
REMARK  143  A    between atoms: _348  and  _351
REMARK  144  A    between atoms: _351  and  _352
REMARK  145  A    between atoms: _357  and  _358
REMARK  146  A    between atoms: _360  and  _362
REMARK  147  A    between atoms: _362  and  _363
REMARK  148  A    between atoms: _362  and  _365
REMARK  149  A    between atoms: _365  and  _366
REMARK  150  A    between atoms: _369  and  _371
REMARK  151  A    between atoms: _371  and  _372
REMARK  152  A    between atoms: _371  and  _374
REMARK  153  A    between atoms: _376  and  _378
REMARK  154  A    between atoms: _378  and  _379
REMARK  155  A    between atoms: _382  and  _384
REMARK  156  A    between atoms: _384  and  _385
REMARK  157  A    between atoms: _384  and  _387
REMARK  158  A    between atoms: _387  and  _388
REMARK  159  A    between atoms: _388  and  _389
REMARK  160  A    between atoms: _389  and  _390
REMARK  161  A    between atoms: _390  and  _391
REMARK  162  A    between atoms: _395  and  _397
REMARK  163  A    between atoms: _397  and  _398
REMARK  164  A    between atoms: _397  and  _400
REMARK  165  A    between atoms: _400  and  _401
REMARK  166  A    between atoms: _404  and  _406
REMARK  167  A    between atoms: _406  and  _407
REMARK  168  A    between atoms: _410  and  _412
REMARK  169  A    between atoms: _412  and  _413
REMARK  170  A    between atoms: _412  and  _415
REMARK  171  A    between atoms: _415  and  _416
REMARK  172  A    between atoms: _416  and  _530
REMARK  173  A    between atoms: _417  and  _419
REMARK  174  A    between atoms: _419  and  _420
REMARK  175  A    between atoms: _419  and  _422
REMARK  176  A    between atoms: _422  and  _423
REMARK  177  A    between atoms: _423  and  _424
REMARK  178  A    between atoms: _424  and  _425
REMARK  179  A    between atoms: _425  and  _426
REMARK  180  A    between atoms: _430  and  _432
REMARK  181  A    between atoms: _432  and  _433
REMARK  182  A    between atoms: _435  and  _437
REMARK  183  A    between atoms: _437  and  _438
REMARK  184  A    between atoms: _437  and  _440
REMARK  185  A    between atoms: _440  and  _441
REMARK  186  A    between atoms: _444  and  _446
REMARK  187  A    between atoms: _446  and  _447
REMARK  188  A    between atoms: _446  and  _449
REMARK  189  A    between atoms: _449  and  _450
REMARK  190  A    between atoms: _452  and  _454
REMARK  191  A    between atoms: _454  and  _455
REMARK  192  A    between atoms: _457  and  _459
REMARK  193  A    between atoms: _459  and  _460
REMARK  194  A    between atoms: _462  and  _464
REMARK  195  A    between atoms: _464  and  _465
REMARK  196  A    between atoms: _464  and  _467
REMARK  197  A    between atoms: _467  and  _468
REMARK  198  A    between atoms: _471  and  _473
REMARK  199  A    between atoms: _473  and  _474
REMARK  200  A    between atoms: _473  and  _476
REMARK  201  A    between atoms: _476  and  _477
REMARK  202  A    between atoms: _480  and  _482
REMARK  203  A    between atoms: _482  and  _483
REMARK  204  A    between atoms: _482  and  _485
REMARK  205  A    between atoms: _485  and  _486
REMARK  206  A    between atoms: _488  and  _490
REMARK  207  A    between atoms: _490  and  _491
REMARK  208  A    between atoms: _490  and  _493
REMARK  209  A    between atoms: _493  and  _494
REMARK  210  A    between atoms: _504  and  _506
REMARK  211  A    between atoms: _506  and  _507
REMARK  212  A    between atoms: _509  and  _511
REMARK  213  A    between atoms: _511  and  _512
REMARK  214  A    between atoms: _511  and  _514
REMARK  215  A    between atoms: _514  and  _515
REMARK  216  A    between atoms: _515  and  _516
REMARK  217  A    between atoms: _519  and  _521
REMARK  218  A    between atoms: _521  and  _522
REMARK  219  A    between atoms: _524  and  _526
REMARK  220  A    between atoms: _526  and  _527
REMARK  221  A    between atoms: _526  and  _529
REMARK  222  A    between atoms: _529  and  _530
REMARK  223  A    between atoms: _531  and  _533
REMARK  224  A    between atoms: _533  and  _534
REMARK  225  A    between atoms: _537  and  _539
REMARK  226  A    between atoms: _539  and  _540
REMARK  227  A    between atoms: _539  and  _542
REMARK  228  A    between atoms: _542  and  _543
REMARK  229  A    between atoms: _543  and  _544
REMARK  230  A    between atoms: _549  and  _551
REMARK  231  A    between atoms: _551  and  _552
REMARK  232  A    between atoms: _551  and  _554
REMARK  233  A    between atoms: _554  and  _555
REMARK  234  A    between atoms: _555  and  _556
REMARK  235  A    between atoms: _556  and  _557
REMARK  236  A    between atoms: _567  and  _568
REMARK  237  A    between atoms: _573  and  _575
REMARK  238  A    between atoms: _575  and  _576
REMARK  239  A    between atoms: _578  and  _580
REMARK  240  A    between atoms: _580  and  _581
REMARK  241  A    between atoms: _580  and  _583
REMARK  242  A    between atoms: _586  and  _588
REMARK  243  A    between atoms: _588  and  _589
REMARK  244  A    between atoms: _588  and  _591
REMARK  245  A    between atoms: _591  and  _592
REMARK  246  A    between atoms: _597  and  _598
REMARK  247  A    between atoms: _600  and  _602
REMARK  248  A    between atoms: _602  and  _603
REMARK  249  A    between atoms: _602  and  _605
REMARK  250  A    between atoms: _605  and  _606
REMARK                            x       y       z     vdW  Elec       q    Type
REMARK                         _______ _______ _______ _____ _____    ______ ____
ROOT
ATOM      1  CA  ILE A   1      28.291  12.660 -32.487  0.00  0.00    +0.133 C 
ENDROOT
BRANCH   1   2
ATOM      2  N   ILE A   1      27.795  12.199 -31.192  0.00  0.00    -0.239 NA
ATOM      3  H   ILE A   1      27.632  12.889 -30.431  0.00  0.00    +0.142 HD
ENDBRANCH   1   2
BRANCH   1   4
ATOM      4  C   ILE A   1      29.510  13.617 -32.328  0.00  0.00    +0.224 C 
ATOM      5  O   ILE A   1      29.485  14.470 -31.437  0.00  0.00    -0.287 OA
ENDBRANCH   1   4
BRANCH   1   6
ATOM      6  CB  ILE A   1      27.090  13.276 -33.286  0.00  0.00    +0.023 C 
ATOM      7  CG2 ILE A   1      27.499  13.691 -34.688  0.00  0.00    +0.002 C 
BRANCH   6   8
ATOM      8  CG1 ILE A   1      25.867  12.301 -33.326  0.00  0.00    +0.002 C 
ATOM      9  CD1 ILE A   1      24.801  12.572 -34.317  0.00  0.00    +0.000 C 
ENDBRANCH   6   8
ENDBRANCH   1   6
TORSDOF 4
REMARK  Name = ../refined-set-2016/4x6p/4x6p_pocket.pdb
REMARK  250 active torsions:
REMARK  status: ('A' for Active; 'I' for Inactive)
REMARK    1  A    between atoms: _1  and  _5
REMARK    2  A    between atoms: _5  and  _6
REMARK    3  A    between atoms: _5  and  _8
REMARK    4  A    between atoms: _8  and  _9
REMARK    5  A    between atoms: _12  and  _14
REMARK    6  A    between atoms: _14  and  _15
REMARK    7  A    between atoms: _14  and  _17
REMARK    8  A    between atoms: _20  and  _22
REMARK    9  A    between atoms: _22  and  _23
REMARK   10  A    between atoms: _22  and  _25
REMARK   11  A    between atoms: _25  and  _26
REMARK   12  A    between atoms: _29  and  _31
REMARK   13  A    between atoms: _31  and  _32
REMARK   14  A    between atoms: _31  and  _34
REMARK   15  A    between atoms: _34  and  _35
REMARK   16  A    between atoms: _38  and  _40
REMARK   17  A    between atoms: _40  and  _41
REMARK   18  A    between atoms: _40  and  _43
REMARK   19  A    between atoms: _43  and  _44
REMARK   20  A    between atoms: _49  and  _51
REMARK   21  A    between atoms: _51  and  _52
REMARK   22  A    between atoms: _51  and  _54
REMARK   23  A    between atoms: _54  and  _55
REMARK   24  A    between atoms: _58  and  _60
REMARK   25  A    between atoms: _60  and  _61
REMARK   26  A    between atoms: _60  and  _63
REMARK   27  A    between atoms: _63  and  _64
REMARK   28  A    between atoms: _64  and  _65
REMARK   29  A    between atoms: _70  and  _72
REMARK   30  A    between atoms: _72  and  _73
REMARK   31  A    between atoms: _72  and  _75
REMARK   32  A    between atoms: _75  and  _76
REMARK   33  A    between atoms: _76  and  _77
REMARK   34  A    between atoms: _77  and  _78
REMARK   35  A    between atoms: _87  and  _89
REMARK   36  A    between atoms: _89  and  _90
REMARK   37  A    between atoms: _89  and  _92
REMARK   38  A    between atoms: _92  and  _93
REMARK   39  A    between atoms: _98  and  _100
REMARK   40  A    between atoms: _100  and  _101
REMARK   41  A    between atoms: _100  and  _103
REMARK   42  A    between atoms: _103  and  _104
REMARK   43  A    between atoms: _107  and  _109
REMARK   44  A    between atoms: _109  and  _110
REMARK   45  A    between atoms: _109  and  _112
REMARK   46  A    between atoms: _112  and  _113
REMARK   47  A    between atoms: _113  and  _148
REMARK   48  A    between atoms: _114  and  _116
REMARK   49  A    between atoms: _116  and  _117
REMARK   50  A    between atoms: _119  and  _121
REMARK   51  A    between atoms: _121  and  _122
REMARK   52  A    between atoms: _125  and  _127
REMARK   53  A    between atoms: _127  and  _128
REMARK   54  A    between atoms: _131  and  _133
REMARK   55  A    between atoms: _133  and  _134
REMARK   56  A    between atoms: _133  and  _136
REMARK   57  A    between atoms: _136  and  _137
REMARK   58  A    between atoms: _142  and  _144
REMARK   59  A    between atoms: _144  and  _145
REMARK   60  A    between atoms: _144  and  _147
REMARK   61  A    between atoms: _147  and  _148
REMARK   62  A    between atoms: _149  and  _151
REMARK   63  A    between atoms: _151  and  _152
REMARK   64  A    between atoms: _151  and  _154
REMARK   65  A    between atoms: _154  and  _155
REMARK   66  A    between atoms: _161  and  _163
REMARK   67  A    between atoms: _163  and  _164
REMARK   68  A    between atoms: _163  and  _166
REMARK   69  A    between atoms: _166  and  _167
REMARK   70  A    between atoms: _172  and  _173
REMARK   71  A    between atoms: _175  and  _177
REMARK   72  A    between atoms: _177  and  _178
REMARK   73  A    between atoms: _180  and  _182
REMARK   74  A    between atoms: _182  and  _183
REMARK   75  A    between atoms: _182  and  _185
REMARK   76  A    between atoms: _188  and  _190
REMARK   77  A    between atoms: _190  and  _191
REMARK   78  A    between atoms: _190  and  _193
REMARK   79  A    between atoms: _193  and  _194
REMARK   80  A    between atoms: _194  and  _195
REMARK   81  A    between atoms: _200  and  _202
REMARK   82  A    between atoms: _202  and  _203
REMARK   83  A    between atoms: _202  and  _205
REMARK   84  A    between atoms: _205  and  _206
REMARK   85  A    between atoms: _211  and  _212
REMARK   86  A    between atoms: _214  and  _216
REMARK   87  A    between atoms: _216  and  _217
REMARK   88  A    between atoms: _220  and  _222
REMARK   89  A    between atoms: _222  and  _223
REMARK   90  A    between atoms: _222  and  _225
REMARK   91  A    between atoms: _225  and  _226
REMARK   92  A    between atoms: _229  and  _231
REMARK   93  A    between atoms: _231  and  _232
REMARK   94  A    between atoms: _231  and  _234
REMARK   95  A    between atoms: _237  and  _239
REMARK   96  A    between atoms: _239  and  _240
REMARK   97  A    between atoms: _239  and  _242
REMARK   98  A    between atoms: _242  and  _243
REMARK   99  A    between atoms: _253  and  _255
REMARK  100  A    between atoms: _255  and  _256
REMARK  101  A    between atoms: _258  and  _260
REMARK  102  A    between atoms: _260  and  _261
REMARK  103  A    between atoms: _260  and  _263
REMARK  104  A    between atoms: _263  and  _264
REMARK  105  A    between atoms: _269  and  _270
REMARK  106  A    between atoms: _272  and  _274
REMARK  107  A    between atoms: _274  and  _275
REMARK  108  A    between atoms: _274  and  _277
REMARK  109  A    between atoms: _277  and  _278
REMARK  110  A    between atoms: _278  and  _279
REMARK  111  A    between atoms: _279  and  _280
REMARK  112  A    between atoms: _280  and  _281
REMARK  113  A    between atoms: _285  and  _287
REMARK  114  A    between atoms: _287  and  _288
REMARK  115  A    between atoms: _287  and  _290
REMARK  116  A    between atoms: _290  and  _291
REMARK  117  A    between atoms: _294  and  _296
REMARK  118  A    between atoms: _296  and  _297
REMARK  119  A    between atoms: _296  and  _299
REMARK  120  A    between atoms: _299  and  _300
REMARK  121  A    between atoms: _303  and  _305
REMARK  122  A    between atoms: _305  and  _306
REMARK  123  A    between atoms: _305  and  _308
REMARK  124  A    between atoms: _308  and  _309
REMARK  125  A    between atoms: _309  and  _310
REMARK  126  A    between atoms: _310  and  _311
REMARK  127  A    between atoms: _311  and  _312
REMARK  128  A    between atoms: _316  and  _318
REMARK  129  A    between atoms: _318  and  _319
REMARK  130  A    between atoms: _318  and  _321
REMARK  131  A    between atoms: _321  and  _322
REMARK  132  A    between atoms: _325  and  _327
REMARK  133  A    between atoms: _327  and  _328
REMARK  134  A    between atoms: _327  and  _330
REMARK  135  A    between atoms: _330  and  _331
REMARK  136  A    between atoms: _331  and  _332
REMARK  137  A    between atoms: _337  and  _339
REMARK  138  A    between atoms: _339  and  _340
REMARK  139  A    between atoms: _339  and  _342
REMARK  140  A    between atoms: _342  and  _343
REMARK  141  A    between atoms: _346  and  _348
REMARK  142  A    between atoms: _348  and  _349
REMARK  143  A    between atoms: _348  and  _351
REMARK  144  A    between atoms: _351  and  _352
REMARK  145  A    between atoms: _357  and  _358
REMARK  146  A    between atoms: _360  and  _362
REMARK  147  A    between atoms: _362  and  _363
REMARK  148  A    between atoms: _362  and  _365
REMARK  149  A    between atoms: _365  and  _366
REMARK  150  A    between atoms: _369  and  _371
REMARK  151  A    between atoms: _371  and  _372
REMARK  152  A    between atoms: _371  and  _374
REMARK  153  A    between atoms: _376  and  _378
REMARK  154  A    between atoms: _378  and  _379
REMARK  155  A    between atoms: _382  and  _384
REMARK  156  A    between atoms: _384  and  _385
REMARK  157  A    between atoms: _384  and  _387
REMARK  158  A    between atoms: _387  and  _388
REMARK  159  A    between atoms: _388  and  _389
REMARK  160  A    between atoms: _389  and  _390
REMARK  161  A    between atoms: _390  and  _391
REMARK  162  A    between atoms: _395  and  _397
REMARK  163  A    between atoms: _397  and  _398
REMARK  164  A    between atoms: _397  and  _400
REMARK  165  A    between atoms: _400  and  _401
REMARK  166  A    between atoms: _404  and  _406
REMARK  167  A    between atoms: _406  and  _407
REMARK  168  A    between atoms: _410  and  _412
REMARK  169  A    between atoms: _412  and  _413
REMARK  170  A    between atoms: _412  and  _415
REMARK  171  A    between atoms: _415  and  _416
REMARK  172  A    between atoms: _416  and  _530
REMARK  173  A    between atoms: _417  and  _419
REMARK  174  A    between atoms: _419  and  _420
REMARK  175  A    between atoms: _419  and  _422
REMARK  176  A    between atoms: _422  and  _423
REMARK  177  A    between atoms: _423  and  _424
REMARK  178  A    between atoms: _424  and  _425
REMARK  179  A    between atoms: _425  and  _426
REMARK  180  A    between atoms: _430  and  _432
REMARK  181  A    between atoms: _432  and  _433
REMARK  182  A    between atoms: _435  and  _437
REMARK  183  A    between atoms: _437  and  _438
REMARK  184  A    between atoms: _437  and  _440
REMARK  185  A    between atoms: _440  and  _441
REMARK  186  A    between atoms: _444  and  _446
REMARK  187  A    between atoms: _446  and  _447
REMARK  188  A    between atoms: _446  and  _449
REMARK  189  A    between atoms: _449  and  _450
REMARK  190  A    between atoms: _452  and  _454
REMARK  191  A    between atoms: _454  and  _455
REMARK  192  A    between atoms: _457  and  _459
REMARK  193  A    between atoms: _459  and  _460
REMARK  194  A    between atoms: _462  and  _464
REMARK  195  A    between atoms: _464  and  _465
REMARK  196  A    between atoms: _464  and  _467
REMARK  197  A    between atoms: _467  and  _468
REMARK  198  A    between atoms: _471  and  _473
REMARK  199  A    between atoms: _473  and  _474
REMARK  200  A    between atoms: _473  and  _476
REMARK  201  A    between atoms: _476  and  _477
REMARK  202  A    between atoms: _480  and  _482
REMARK  203  A    between atoms: _482  and  _483
REMARK  204  A    between atoms: _482  and  _485
REMARK  205  A    between atoms: _485  and  _486
REMARK  206  A    between atoms: _488  and  _490
REMARK  207  A    between atoms: _490  and  _491
REMARK  208  A    between atoms: _490  and  _493
REMARK  209  A    between atoms: _493  and  _494
REMARK  210  A    between atoms: _504  and  _506
REMARK  211  A    between atoms: _506  and  _507
REMARK  212  A    between atoms: _509  and  _511
REMARK  213  A    between atoms: _511  and  _512
REMARK  214  A    between atoms: _511  and  _514
REMARK  215  A    between atoms: _514  and  _515
REMARK  216  A    between atoms: _515  and  _516
REMARK  217  A    between atoms: _519  and  _521
REMARK  218  A    between atoms: _521  and  _522
REMARK  219  A    between atoms: _524  and  _526
REMARK  220  A    between atoms: _526  and  _527
REMARK  221  A    between atoms: _526  and  _529
REMARK  222  A    between atoms: _529  and  _530
REMARK  223  A    between atoms: _531  and  _533
REMARK  224  A    between atoms: _533  and  _534
REMARK  225  A    between atoms: _537  and  _539
REMARK  226  A    between atoms: _539  and  _540
REMARK  227  A    between atoms: _539  and  _542
REMARK  228  A    between atoms: _542  and  _543
REMARK  229  A    between atoms: _543  and  _544
REMARK  230  A    between atoms: _549  and  _551
REMARK  231  A    between atoms: _551  and  _552
REMARK  232  A    between atoms: _551  and  _554
REMARK  233  A    between atoms: _554  and  _555
REMARK  234  A    between atoms: _555  and  _556
REMARK  235  A    between atoms: _556  and  _557
REMARK  236  A    between atoms: _567  and  _568
REMARK  237  A    between atoms: _573  and  _575
REMARK  238  A    between atoms: _575  and  _576
REMARK  239  A    between atoms: _578  and  _580
REMARK  240  A    between atoms: _580  and  _581
REMARK  241  A    between atoms: _580  and  _583
REMARK  242  A    between atoms: _586  and  _588
REMARK  243  A    between atoms: _588  and  _589
REMARK  244  A    between atoms: _588  and  _591
REMARK  245  A    between atoms: _591  and  _592
REMARK  246  A    between atoms: _597  and  _598
REMARK  247  A    between atoms: _600  and  _602
REMARK  248  A    between atoms: _602  and  _603
REMARK  249  A    between atoms: _602  and  _605
REMARK  250  A    between atoms: _605  and  _606
REMARK                            x       y       z     vdW  Elec       q    Type
REMARK                         _______ _______ _______ _____ _____    ______ ____
ROOT
ATOM      1  CG  TYR A   1      26.993  22.295 -45.719  0.00  0.00    -0.020 A 
ATOM      2  CD2 TYR A   1      27.445  21.691 -44.544  0.00  0.00    -0.001 A 
ATOM      3  CE2 TYR A   1      26.771  20.594 -43.990  0.00  0.00    +0.036 A 
ATOM      4  CZ  TYR A   1      25.629  20.094 -44.608  0.00  0.00    +0.134 A 
ATOM      5  CE1 TYR A   1      25.172  20.671 -45.784  0.00  0.00    +0.036 A 
ATOM      6  CD1 TYR A   1      25.848  21.771 -46.326  0.00  0.00    -0.001 A 
ENDROOT
BRANCH   4   7
ATOM      7  OH  TYR A   1      24.957  18.998 -44.100  0.00  0.00    -0.506 OA
ATOM      8  HH  TYR A   1      24.649  19.198 -43.181  0.00  0.00    +0.292 HD
ENDBRANCH   4   7
BRANCH   1   9
ATOM      9  CB  TYR A   1      27.720  23.485 -46.316  0.00  0.00    +0.051 C 
BRANCH   9  10
ATOM     10  CA  TYR A   1      28.533  23.108 -47.574  0.00  0.00    +0.137 C 
BRANCH  10  11
ATOM     11  N   TYR A   1      29.683  22.296 -47.196  0.00  0.00    -0.239 NA
ATOM     12  H   TYR A   1      30.408  22.711 -46.577  0.00  0.00    +0.142 HD
ENDBRANCH  10  11
BRANCH  10  13
ATOM     13  C   TYR A   1      28.942  24.326 -48.403  0.00  0.00    +0.224 C 
ATOM     14  O   TYR A   1      28.626  25.463 -48.056  0.00  0.00    -0.287 OA
ENDBRANCH  10  13
ENDBRANCH   9  10
ENDBRANCH   1   9
TORSDOF 5
REMARK  Name = ../refined-set-2016/4x6p/4x6p_pocket.pdb
REMARK  250 active torsions:
REMARK  status: ('A' for Active; 'I' for Inactive)
REMARK    1  A    between atoms: _1  and  _5
REMARK    2  A    between atoms: _5  and  _6
REMARK    3  A    between atoms: _5  and  _8
REMARK    4  A    between atoms: _8  and  _9
REMARK    5  A    between atoms: _12  and  _14
REMARK    6  A    between atoms: _14  and  _15
REMARK    7  A    between atoms: _14  and  _17
REMARK    8  A    between atoms: _20  and  _22
REMARK    9  A    between atoms: _22  and  _23
REMARK   10  A    between atoms: _22  and  _25
REMARK   11  A    between atoms: _25  and  _26
REMARK   12  A    between atoms: _29  and  _31
REMARK   13  A    between atoms: _31  and  _32
REMARK   14  A    between atoms: _31  and  _34
REMARK   15  A    between atoms: _34  and  _35
REMARK   16  A    between atoms: _38  and  _40
REMARK   17  A    between atoms: _40  and  _41
REMARK   18  A    between atoms: _40  and  _43
REMARK   19  A    between atoms: _43  and  _44
REMARK   20  A    between atoms: _49  and  _51
REMARK   21  A    between atoms: _51  and  _52
REMARK   22  A    between atoms: _51  and  _54
REMARK   23  A    between atoms: _54  and  _55
REMARK   24  A    between atoms: _58  and  _60
REMARK   25  A    between atoms: _60  and  _61
REMARK   26  A    between atoms: _60  and  _63
REMARK   27  A    between atoms: _63  and  _64
REMARK   28  A    between atoms: _64  and  _65
REMARK   29  A    between atoms: _70  and  _72
REMARK   30  A    between atoms: _72  and  _73
REMARK   31  A    between atoms: _72  and  _75
REMARK   32  A    between atoms: _75  and  _76
REMARK   33  A    between atoms: _76  and  _77
REMARK   34  A    between atoms: _77  and  _78
REMARK   35  A    between atoms: _87  and  _89
REMARK   36  A    between atoms: _89  and  _90
REMARK   37  A    between atoms: _89  and  _92
REMARK   38  A    between atoms: _92  and  _93
REMARK   39  A    between atoms: _98  and  _100
REMARK   40  A    between atoms: _100  and  _101
REMARK   41  A    between atoms: _100  and  _103
REMARK   42  A    between atoms: _103  and  _104
REMARK   43  A    between atoms: _107  and  _109
REMARK   44  A    between atoms: _109  and  _110
REMARK   45  A    between atoms: _109  and  _112
REMARK   46  A    between atoms: _112  and  _113
REMARK   47  A    between atoms: _113  and  _148
REMARK   48  A    between atoms: _114  and  _116
REMARK   49  A    between atoms: _116  and  _117
REMARK   50  A    between atoms: _119  and  _121
REMARK   51  A    between atoms: _121  and  _122
REMARK   52  A    between atoms: _125  and  _127
REMARK   53  A    between atoms: _127  and  _128
REMARK   54  A    between atoms: _131  and  _133
REMARK   55  A    between atoms: _133  and  _134
REMARK   56  A    between atoms: _133  and  _136
REMARK   57  A    between atoms: _136  and  _137
REMARK   58  A    between atoms: _142  and  _144
REMARK   59  A    between atoms: _144  and  _145
REMARK   60  A    between atoms: _144  and  _147
REMARK   61  A    between atoms: _147  and  _148
REMARK   62  A    between atoms: _149  and  _151
REMARK   63  A    between atoms: _151  and  _152
REMARK   64  A    between atoms: _151  and  _154
REMARK   65  A    between atoms: _154  and  _155
REMARK   66  A    between atoms: _161  and  _163
REMARK   67  A    between atoms: _163  and  _164
REMARK   68  A    between atoms: _163  and  _166
REMARK   69  A    between atoms: _166  and  _167
REMARK   70  A    between atoms: _172  and  _173
REMARK   71  A    between atoms: _175  and  _177
REMARK   72  A    between atoms: _177  and  _178
REMARK   73  A    between atoms: _180  and  _182
REMARK   74  A    between atoms: _182  and  _183
REMARK   75  A    between atoms: _182  and  _185
REMARK   76  A    between atoms: _188  and  _190
REMARK   77  A    between atoms: _190  and  _191
REMARK   78  A    between atoms: _190  and  _193
REMARK   79  A    between atoms: _193  and  _194
REMARK   80  A    between atoms: _194  and  _195
REMARK   81  A    between atoms: _200  and  _202
REMARK   82  A    between atoms: _202  and  _203
REMARK   83  A    between atoms: _202  and  _205
REMARK   84  A    between atoms: _205  and  _206
REMARK   85  A    between atoms: _211  and  _212
REMARK   86  A    between atoms: _214  and  _216
REMARK   87  A    between atoms: _216  and  _217
REMARK   88  A    between atoms: _220  and  _222
REMARK   89  A    between atoms: _222  and  _223
REMARK   90  A    between atoms: _222  and  _225
REMARK   91  A    between atoms: _225  and  _226
REMARK   92  A    between atoms: _229  and  _231
REMARK   93  A    between atoms: _231  and  _232
REMARK   94  A    between atoms: _231  and  _234
REMARK   95  A    between atoms: _237  and  _239
REMARK   96  A    between atoms: _239  and  _240
REMARK   97  A    between atoms: _239  and  _242
REMARK   98  A    between atoms: _242  and  _243
REMARK   99  A    between atoms: _253  and  _255
REMARK  100  A    between atoms: _255  and  _256
REMARK  101  A    between atoms: _258  and  _260
REMARK  102  A    between atoms: _260  and  _261
REMARK  103  A    between atoms: _260  and  _263
REMARK  104  A    between atoms: _263  and  _264
REMARK  105  A    between atoms: _269  and  _270
REMARK  106  A    between atoms: _272  and  _274
REMARK  107  A    between atoms: _274  and  _275
REMARK  108  A    between atoms: _274  and  _277
REMARK  109  A    between atoms: _277  and  _278
REMARK  110  A    between atoms: _278  and  _279
REMARK  111  A    between atoms: _279  and  _280
REMARK  112  A    between atoms: _280  and  _281
REMARK  113  A    between atoms: _285  and  _287
REMARK  114  A    between atoms: _287  and  _288
REMARK  115  A    between atoms: _287  and  _290
REMARK  116  A    between atoms: _290  and  _291
REMARK  117  A    between atoms: _294  and  _296
REMARK  118  A    between atoms: _296  and  _297
REMARK  119  A    between atoms: _296  and  _299
REMARK  120  A    between atoms: _299  and  _300
REMARK  121  A    between atoms: _303  and  _305
REMARK  122  A    between atoms: _305  and  _306
REMARK  123  A    between atoms: _305  and  _308
REMARK  124  A    between atoms: _308  and  _309
REMARK  125  A    between atoms: _309  and  _310
REMARK  126  A    between atoms: _310  and  _311
REMARK  127  A    between atoms: _311  and  _312
REMARK  128  A    between atoms: _316  and  _318
REMARK  129  A    between atoms: _318  and  _319
REMARK  130  A    between atoms: _318  and  _321
REMARK  131  A    between atoms: _321  and  _322
REMARK  132  A    between atoms: _325  and  _327
REMARK  133  A    between atoms: _327  and  _328
REMARK  134  A    between atoms: _327  and  _330
REMARK  135  A    between atoms: _330  and  _331
REMARK  136  A    between atoms: _331  and  _332
REMARK  137  A    between atoms: _337  and  _339
REMARK  138  A    between atoms: _339  and  _340
REMARK  139  A    between atoms: _339  and  _342
REMARK  140  A    between atoms: _342  and  _343
REMARK  141  A    between atoms: _346  and  _348
REMARK  142  A    between atoms: _348  and  _349
REMARK  143  A    between atoms: _348  and  _351
REMARK  144  A    between atoms: _351  and  _352
REMARK  145  A    between atoms: _357  and  _358
REMARK  146  A    between atoms: _360  and  _362
REMARK  147  A    between atoms: _362  and  _363
REMARK  148  A    between atoms: _362  and  _365
REMARK  149  A    between atoms: _365  and  _366
REMARK  150  A    between atoms: _369  and  _371
REMARK  151  A    between atoms: _371  and  _372
REMARK  152  A    between atoms: _371  and  _374
REMARK  153  A    between atoms: _376  and  _378
REMARK  154  A    between atoms: _378  and  _379
REMARK  155  A    between atoms: _382  and  _384
REMARK  156  A    between atoms: _384  and  _385
REMARK  157  A    between atoms: _384  and  _387
REMARK  158  A    between atoms: _387  and  _388
REMARK  159  A    between atoms: _388  and  _389
REMARK  160  A    between atoms: _389  and  _390
REMARK  161  A    between atoms: _390  and  _391
REMARK  162  A    between atoms: _395  and  _397
REMARK  163  A    between atoms: _397  and  _398
REMARK  164  A    between atoms: _397  and  _400
REMARK  165  A    between atoms: _400  and  _401
REMARK  166  A    between atoms: _404  and  _406
REMARK  167  A    between atoms: _406  and  _407
REMARK  168  A    between atoms: _410  and  _412
REMARK  169  A    between atoms: _412  and  _413
REMARK  170  A    between atoms: _412  and  _415
REMARK  171  A    between atoms: _415  and  _416
REMARK  172  A    between atoms: _416  and  _530
REMARK  173  A    between atoms: _417  and  _419
REMARK  174  A    between atoms: _419  and  _420
REMARK  175  A    between atoms: _419  and  _422
REMARK  176  A    between atoms: _422  and  _423
REMARK  177  A    between atoms: _423  and  _424
REMARK  178  A    between atoms: _424  and  _425
REMARK  179  A    between atoms: _425  and  _426
REMARK  180  A    between atoms: _430  and  _432
REMARK  181  A    between atoms: _432  and  _433
REMARK  182  A    between atoms: _435  and  _437
REMARK  183  A    between atoms: _437  and  _438
REMARK  184  A    between atoms: _437  and  _440
REMARK  185  A    between atoms: _440  and  _441
REMARK  186  A    between atoms: _444  and  _446
REMARK  187  A    between atoms: _446  and  _447
REMARK  188  A    between atoms: _446  and  _449
REMARK  189  A    between atoms: _449  and  _450
REMARK  190  A    between atoms: _452  and  _454
REMARK  191  A    between atoms: _454  and  _455
REMARK  192  A    between atoms: _457  and  _459
REMARK  193  A    between atoms: _459  and  _460
REMARK  194  A    between atoms: _462  and  _464
REMARK  195  A    between atoms: _464  and  _465
REMARK  196  A    between atoms: _464  and  _467
REMARK  197  A    between atoms: _467  and  _468
REMARK  198  A    between atoms: _471  and  _473
REMARK  199  A    between atoms: _473  and  _474
REMARK  200  A    between atoms: _473  and  _476
REMARK  201  A    between atoms: _476  and  _477
REMARK  202  A    between atoms: _480  and  _482
REMARK  203  A    between atoms: _482  and  _483
REMARK  204  A    between atoms: _482  and  _485
REMARK  205  A    between atoms: _485  and  _486
REMARK  206  A    between atoms: _488  and  _490
REMARK  207  A    between atoms: _490  and  _491
REMARK  208  A    between atoms: _490  and  _493
REMARK  209  A    between atoms: _493  and  _494
REMARK  210  A    between atoms: _504  and  _506
REMARK  211  A    between atoms: _506  and  _507
REMARK  212  A    between atoms: _509  and  _511
REMARK  213  A    between atoms: _511  and  _512
REMARK  214  A    between atoms: _511  and  _514
REMARK  215  A    between atoms: _514  and  _515
REMARK  216  A    between atoms: _515  and  _516
REMARK  217  A    between atoms: _519  and  _521
REMARK  218  A    between atoms: _521  and  _522
REMARK  219  A    between atoms: _524  and  _526
REMARK  220  A    between atoms: _526  and  _527
REMARK  221  A    between atoms: _526  and  _529
REMARK  222  A    between atoms: _529  and  _530
REMARK  223  A    between atoms: _531  and  _533
REMARK  224  A    between atoms: _533  and  _534
REMARK  225  A    between atoms: _537  and  _539
REMARK  226  A    between atoms: _539  and  _540
REMARK  227  A    between atoms: _539  and  _542
REMARK  228  A    between atoms: _542  and  _543
REMARK  229  A    between atoms: _543  and  _544
REMARK  230  A    between atoms: _549  and  _551
REMARK  231  A    between atoms: _551  and  _552
REMARK  232  A    between atoms: _551  and  _554
REMARK  233  A    between atoms: _554  and  _555
REMARK  234  A    between atoms: _555  and  _556
REMARK  235  A    between atoms: _556  and  _557
REMARK  236  A    between atoms: _567  and  _568
REMARK  237  A    between atoms: _573  and  _575
REMARK  238  A    between atoms: _575  and  _576
REMARK  239  A    between atoms: _578  and  _580
REMARK  240  A    between atoms: _580  and  _581
REMARK  241  A    between atoms: _580  and  _583
REMARK  242  A    between atoms: _586  and  _588
REMARK  243  A    between atoms: _588  and  _589
REMARK  244  A    between atoms: _588  and  _591
REMARK  245  A    between atoms: _591  and  _592
REMARK  246  A    between atoms: _597  and  _598
REMARK  247  A    between atoms: _600  and  _602
REMARK  248  A    between atoms: _602  and  _603
REMARK  249  A    between atoms: _602  and  _605
REMARK  250  A    between atoms: _605  and  _606
REMARK                            x       y       z     vdW  Elec       q    Type
REMARK                         _______ _______ _______ _____ _____    ______ ____
ROOT
ATOM      1  C   ILE A   1      27.867  23.272 -35.986  0.00  0.00    +0.238 C 
ATOM      2  O   ILE A   1      26.657  23.008 -36.063  0.00  0.00    -0.274 OA
ATOM      3  N   CYS A   2      28.819  22.511 -36.529  0.00  0.00    -0.297 N 
ATOM      4  H   CYS A   2      29.813  22.808 -36.454  0.00  0.00    +0.150 HD
ENDROOT
BRANCH   1   5
ATOM      5  CA  ILE A   1      28.322  24.554 -35.327  0.00  0.00    +0.145 C 
BRANCH   5   6
ATOM      6  N   ILE A   1      27.395  25.586 -35.761  0.00  0.00    -0.238 NA
ATOM      7  H   ILE A   1      26.382  25.354 -35.797  0.00  0.00    +0.142 HD
ENDBRANCH   5   6
BRANCH   5   8
ATOM      8  CB  ILE A   1      28.466  24.468 -33.768  0.00  0.00    +0.025 C 
ATOM      9  CG2 ILE A   1      27.154  24.110 -33.070  0.00  0.00    +0.002 C 
BRANCH   8  10
ATOM     10  CG1 ILE A   1      29.627  23.525 -33.344  0.00  0.00    +0.002 C 
ATOM     11  CD1 ILE A   1      30.247  23.899 -31.958  0.00  0.00    +0.000 C 
ENDBRANCH   8  10
ENDBRANCH   5   8
ENDBRANCH   1   5
BRANCH   3  12
ATOM     12  CA  CYS A   2      28.494  21.271 -37.225  0.00  0.00    +0.160 C 
BRANCH  12  13
ATOM     13  C   CYS A   2      28.937  20.050 -36.462  0.00  0.00    +0.242 C 
ATOM     14  O   CYS A   2      29.917  20.116 -35.709  0.00  0.00    -0.273 OA
ATOM     15  N   ALA A   3      28.218  18.934 -36.654  0.00  0.00    -0.298 N 
ATOM     16  H   ALA A   3      27.397  18.971 -37.292  0.00  0.00    +0.150 HD
BRANCH  15  17
ATOM     17  CA  ALA A   3      28.541  17.682 -36.008  0.00  0.00    +0.137 C 
ATOM     18  CB  ALA A   3      27.866  17.607 -34.634  0.00  0.00    +0.030 C 
BRANCH  17  19
ATOM     19  C   ALA A   3      28.152  16.497 -36.886  0.00  0.00    +0.227 C 
ATOM     20  O   ALA A   3      27.079  16.481 -37.503  0.00  0.00    -0.286 OA
ENDBRANCH  17  19
ENDBRANCH  15  17
ENDBRANCH  12  13
BRANCH  12  21
ATOM     21  CB  CYS A   2      29.077  21.309 -38.635  0.00  0.00    +0.098 C 
ATOM     22  SG  CYS A   2      28.669  22.840 -39.534  0.00  0.00    -0.080 S 
ENDBRANCH  12  21
ENDBRANCH   3  12
TORSDOF 9
REMARK  Name = ../refined-set-2016/4x6p/4x6p_pocket.pdb
REMARK  250 active torsions:
REMARK  status: ('A' for Active; 'I' for Inactive)
REMARK    1  A    between atoms: _1  and  _5
REMARK    2  A    between atoms: _5  and  _6
REMARK    3  A    between atoms: _5  and  _8
REMARK    4  A    between atoms: _8  and  _9
REMARK    5  A    between atoms: _12  and  _14
REMARK    6  A    between atoms: _14  and  _15
REMARK    7  A    between atoms: _14  and  _17
REMARK    8  A    between atoms: _20  and  _22
REMARK    9  A    between atoms: _22  and  _23
REMARK   10  A    between atoms: _22  and  _25
REMARK   11  A    between atoms: _25  and  _26
REMARK   12  A    between atoms: _29  and  _31
REMARK   13  A    between atoms: _31  and  _32
REMARK   14  A    between atoms: _31  and  _34
REMARK   15  A    between atoms: _34  and  _35
REMARK   16  A    between atoms: _38  and  _40
REMARK   17  A    between atoms: _40  and  _41
REMARK   18  A    between atoms: _40  and  _43
REMARK   19  A    between atoms: _43  and  _44
REMARK   20  A    between atoms: _49  and  _51
REMARK   21  A    between atoms: _51  and  _52
REMARK   22  A    between atoms: _51  and  _54
REMARK   23  A    between atoms: _54  and  _55
REMARK   24  A    between atoms: _58  and  _60
REMARK   25  A    between atoms: _60  and  _61
REMARK   26  A    between atoms: _60  and  _63
REMARK   27  A    between atoms: _63  and  _64
REMARK   28  A    between atoms: _64  and  _65
REMARK   29  A    between atoms: _70  and  _72
REMARK   30  A    between atoms: _72  and  _73
REMARK   31  A    between atoms: _72  and  _75
REMARK   32  A    between atoms: _75  and  _76
REMARK   33  A    between atoms: _76  and  _77
REMARK   34  A    between atoms: _77  and  _78
REMARK   35  A    between atoms: _87  and  _89
REMARK   36  A    between atoms: _89  and  _90
REMARK   37  A    between atoms: _89  and  _92
REMARK   38  A    between atoms: _92  and  _93
REMARK   39  A    between atoms: _98  and  _100
REMARK   40  A    between atoms: _100  and  _101
REMARK   41  A    between atoms: _100  and  _103
REMARK   42  A    between atoms: _103  and  _104
REMARK   43  A    between atoms: _107  and  _109
REMARK   44  A    between atoms: _109  and  _110
REMARK   45  A    between atoms: _109  and  _112
REMARK   46  A    between atoms: _112  and  _113
REMARK   47  A    between atoms: _113  and  _148
REMARK   48  A    between atoms: _114  and  _116
REMARK   49  A    between atoms: _116  and  _117
REMARK   50  A    between atoms: _119  and  _121
REMARK   51  A    between atoms: _121  and  _122
REMARK   52  A    between atoms: _125  and  _127
REMARK   53  A    between atoms: _127  and  _128
REMARK   54  A    between atoms: _131  and  _133
REMARK   55  A    between atoms: _133  and  _134
REMARK   56  A    between atoms: _133  and  _136
REMARK   57  A    between atoms: _136  and  _137
REMARK   58  A    between atoms: _142  and  _144
REMARK   59  A    between atoms: _144  and  _145
REMARK   60  A    between atoms: _144  and  _147
REMARK   61  A    between atoms: _147  and  _148
REMARK   62  A    between atoms: _149  and  _151
REMARK   63  A    between atoms: _151  and  _152
REMARK   64  A    between atoms: _151  and  _154
REMARK   65  A    between atoms: _154  and  _155
REMARK   66  A    between atoms: _161  and  _163
REMARK   67  A    between atoms: _163  and  _164
REMARK   68  A    between atoms: _163  and  _166
REMARK   69  A    between atoms: _166  and  _167
REMARK   70  A    between atoms: _172  and  _173
REMARK   71  A    between atoms: _175  and  _177
REMARK   72  A    between atoms: _177  and  _178
REMARK   73  A    between atoms: _180  and  _182
REMARK   74  A    between atoms: _182  and  _183
REMARK   75  A    between atoms: _182  and  _185
REMARK   76  A    between atoms: _188  and  _190
REMARK   77  A    between atoms: _190  and  _191
REMARK   78  A    between atoms: _190  and  _193
REMARK   79  A    between atoms: _193  and  _194
REMARK   80  A    between atoms: _194  and  _195
REMARK   81  A    between atoms: _200  and  _202
REMARK   82  A    between atoms: _202  and  _203
REMARK   83  A    between atoms: _202  and  _205
REMARK   84  A    between atoms: _205  and  _206
REMARK   85  A    between atoms: _211  and  _212
REMARK   86  A    between atoms: _214  and  _216
REMARK   87  A    between atoms: _216  and  _217
REMARK   88  A    between atoms: _220  and  _222
REMARK   89  A    between atoms: _222  and  _223
REMARK   90  A    between atoms: _222  and  _225
REMARK   91  A    between atoms: _225  and  _226
REMARK   92  A    between atoms: _229  and  _231
REMARK   93  A    between atoms: _231  and  _232
REMARK   94  A    between atoms: _231  and  _234
REMARK   95  A    between atoms: _237  and  _239
REMARK   96  A    between atoms: _239  and  _240
REMARK   97  A    between atoms: _239  and  _242
REMARK   98  A    between atoms: _242  and  _243
REMARK   99  A    between atoms: _253  and  _255
REMARK  100  A    between atoms: _255  and  _256
REMARK  101  A    between atoms: _258  and  _260
REMARK  102  A    between atoms: _260  and  _261
REMARK  103  A    between atoms: _260  and  _263
REMARK  104  A    between atoms: _263  and  _264
REMARK  105  A    between atoms: _269  and  _270
REMARK  106  A    between atoms: _272  and  _274
REMARK  107  A    between atoms: _274  and  _275
REMARK  108  A    between atoms: _274  and  _277
REMARK  109  A    between atoms: _277  and  _278
REMARK  110  A    between atoms: _278  and  _279
REMARK  111  A    between atoms: _279  and  _280
REMARK  112  A    between atoms: _280  and  _281
REMARK  113  A    between atoms: _285  and  _287
REMARK  114  A    between atoms: _287  and  _288
REMARK  115  A    between atoms: _287  and  _290
REMARK  116  A    between atoms: _290  and  _291
REMARK  117  A    between atoms: _294  and  _296
REMARK  118  A    between atoms: _296  and  _297
REMARK  119  A    between atoms: _296  and  _299
REMARK  120  A    between atoms: _299  and  _300
REMARK  121  A    between atoms: _303  and  _305
REMARK  122  A    between atoms: _305  and  _306
REMARK  123  A    between atoms: _305  and  _308
REMARK  124  A    between atoms: _308  and  _309
REMARK  125  A    between atoms: _309  and  _310
REMARK  126  A    between atoms: _310  and  _311
REMARK  127  A    between atoms: _311  and  _312
REMARK  128  A    between atoms: _316  and  _318
REMARK  129  A    between atoms: _318  and  _319
REMARK  130  A    between atoms: _318  and  _321
REMARK  131  A    between atoms: _321  and  _322
REMARK  132  A    between atoms: _325  and  _327
REMARK  133  A    between atoms: _327  and  _328
REMARK  134  A    between atoms: _327  and  _330
REMARK  135  A    between atoms: _330  and  _331
REMARK  136  A    between atoms: _331  and  _332
REMARK  137  A    between atoms: _337  and  _339
REMARK  138  A    between atoms: _339  and  _340
REMARK  139  A    between atoms: _339  and  _342
REMARK  140  A    between atoms: _342  and  _343
REMARK  141  A    between atoms: _346  and  _348
REMARK  142  A    between atoms: _348  and  _349
REMARK  143  A    between atoms: _348  and  _351
REMARK  144  A    between atoms: _351  and  _352
REMARK  145  A    between atoms: _357  and  _358
REMARK  146  A    between atoms: _360  and  _362
REMARK  147  A    between atoms: _362  and  _363
REMARK  148  A    between atoms: _362  and  _365
REMARK  149  A    between atoms: _365  and  _366
REMARK  150  A    between atoms: _369  and  _371
REMARK  151  A    between atoms: _371  and  _372
REMARK  152  A    between atoms: _371  and  _374
REMARK  153  A    between atoms: _376  and  _378
REMARK  154  A    between atoms: _378  and  _379
REMARK  155  A    between atoms: _382  and  _384
REMARK  156  A    between atoms: _384  and  _385
REMARK  157  A    between atoms: _384  and  _387
REMARK  158  A    between atoms: _387  and  _388
REMARK  159  A    between atoms: _388  and  _389
REMARK  160  A    between atoms: _389  and  _390
REMARK  161  A    between atoms: _390  and  _391
REMARK  162  A    between atoms: _395  and  _397
REMARK  163  A    between atoms: _397  and  _398
REMARK  164  A    between atoms: _397  and  _400
REMARK  165  A    between atoms: _400  and  _401
REMARK  166  A    between atoms: _404  and  _406
REMARK  167  A    between atoms: _406  and  _407
REMARK  168  A    between atoms: _410  and  _412
REMARK  169  A    between atoms: _412  and  _413
REMARK  170  A    between atoms: _412  and  _415
REMARK  171  A    between atoms: _415  and  _416
REMARK  172  A    between atoms: _416  and  _530
REMARK  173  A    between atoms: _417  and  _419
REMARK  174  A    between atoms: _419  and  _420
REMARK  175  A    between atoms: _419  and  _422
REMARK  176  A    between atoms: _422  and  _423
REMARK  177  A    between atoms: _423  and  _424
REMARK  178  A    between atoms: _424  and  _425
REMARK  179  A    between atoms: _425  and  _426
REMARK  180  A    between atoms: _430  and  _432
REMARK  181  A    between atoms: _432  and  _433
REMARK  182  A    between atoms: _435  and  _437
REMARK  183  A    between atoms: _437  and  _438
REMARK  184  A    between atoms: _437  and  _440
REMARK  185  A    between atoms: _440  and  _441
REMARK  186  A    between atoms: _444  and  _446
REMARK  187  A    between atoms: _446  and  _447
REMARK  188  A    between atoms: _446  and  _449
REMARK  189  A    between atoms: _449  and  _450
REMARK  190  A    between atoms: _452  and  _454
REMARK  191  A    between atoms: _454  and  _455
REMARK  192  A    between atoms: _457  and  _459
REMARK  193  A    between atoms: _459  and  _460
REMARK  194  A    between atoms: _462  and  _464
REMARK  195  A    between atoms: _464  and  _465
REMARK  196  A    between atoms: _464  and  _467
REMARK  197  A    between atoms: _467  and  _468
REMARK  198  A    between atoms: _471  and  _473
REMARK  199  A    between atoms: _473  and  _474
REMARK  200  A    between atoms: _473  and  _476
REMARK  201  A    between atoms: _476  and  _477
REMARK  202  A    between atoms: _480  and  _482
REMARK  203  A    between atoms: _482  and  _483
REMARK  204  A    between atoms: _482  and  _485
REMARK  205  A    between atoms: _485  and  _486
REMARK  206  A    between atoms: _488  and  _490
REMARK  207  A    between atoms: _490  and  _491
REMARK  208  A    between atoms: _490  and  _493
REMARK  209  A    between atoms: _493  and  _494
REMARK  210  A    between atoms: _504  and  _506
REMARK  211  A    between atoms: _506  and  _507
REMARK  212  A    between atoms: _509  and  _511
REMARK  213  A    between atoms: _511  and  _512
REMARK  214  A    between atoms: _511  and  _514
REMARK  215  A    between atoms: _514  and  _515
REMARK  216  A    between atoms: _515  and  _516
REMARK  217  A    between atoms: _519  and  _521
REMARK  218  A    between atoms: _521  and  _522
REMARK  219  A    between atoms: _524  and  _526
REMARK  220  A    between atoms: _526  and  _527
REMARK  221  A    between atoms: _526  and  _529
REMARK  222  A    between atoms: _529  and  _530
REMARK  223  A    between atoms: _531  and  _533
REMARK  224  A    between atoms: _533  and  _534
REMARK  225  A    between atoms: _537  and  _539
REMARK  226  A    between atoms: _539  and  _540
REMARK  227  A    between atoms: _539  and  _542
REMARK  228  A    between atoms: _542  and  _543
REMARK  229  A    between atoms: _543  and  _544
REMARK  230  A    between atoms: _549  and  _551
REMARK  231  A    between atoms: _551  and  _552
REMARK  232  A    between atoms: _551  and  _554
REMARK  233  A    between atoms: _554  and  _555
REMARK  234  A    between atoms: _555  and  _556
REMARK  235  A    between atoms: _556  and  _557
REMARK  236  A    between atoms: _567  and  _568
REMARK  237  A    between atoms: _573  and  _575
REMARK  238  A    between atoms: _575  and  _576
REMARK  239  A    between atoms: _578  and  _580
REMARK  240  A    between atoms: _580  and  _581
REMARK  241  A    between atoms: _580  and  _583
REMARK  242  A    between atoms: _586  and  _588
REMARK  243  A    between atoms: _588  and  _589
REMARK  244  A    between atoms: _588  and  _591
REMARK  245  A    between atoms: _591  and  _592
REMARK  246  A    between atoms: _597  and  _598
REMARK  247  A    between atoms: _600  and  _602
REMARK  248  A    between atoms: _602  and  _603
REMARK  249  A    between atoms: _602  and  _605
REMARK  250  A    between atoms: _605  and  _606
REMARK                            x       y       z     vdW  Elec       q    Type
REMARK                         _______ _______ _______ _____ _____    ______ ____
ROOT
ATOM      1  CA  CYS A   8      20.342  12.763 -42.915  0.00  0.00    +0.160 C 
ENDROOT
BRANCH   1   2
ATOM      2  C   CYS A   8      21.447  11.750 -42.881  0.00  0.00    +0.242 C 
ATOM      3  N   ALA A   9      22.433  11.953 -42.009  0.00  0.00    -0.297 N 
ATOM      4  H   ALA A   9      22.386  12.825 -41.444  0.00  0.00    +0.150 HD
ATOM      5  O   CYS A   8      21.371  10.770 -43.616  0.00  0.00    -0.273 OA
BRANCH   3   6
ATOM      6  CA  ALA A   9      23.582  11.068 -41.764  0.00  0.00    +0.149 C 
ATOM      7  CB  ALA A   9      23.138   9.831 -40.951  0.00  0.00    +0.031 C 
BRANCH   6   8
ATOM      8  C   ALA A   9      24.341  10.650 -43.037  0.00  0.00    +0.241 C 
ATOM      9  O   ALA A   9      24.856   9.532 -43.093  0.00  0.00    -0.273 OA
ATOM     10  N   GLN A  10      24.403  11.523 -44.047  0.00  0.00    -0.298 N 
ATOM     11  H   GLN A  10      23.955  12.457 -43.954  0.00  0.00    +0.150 HD
BRANCH  10  12
ATOM     12  CA  GLN A  10      25.104  11.165 -45.290  0.00  0.00    +0.137 C 
BRANCH  12  13
ATOM     13  C   GLN A  10      26.593  11.376 -45.080  0.00  0.00    +0.227 C 
ATOM     14  O   GLN A  10      26.990  12.210 -44.252  0.00  0.00    -0.286 OA
ENDBRANCH  12  13
BRANCH  12  15
ATOM     15  CB  GLN A  10      24.661  12.030 -46.465  0.00  0.00    +0.037 C 
BRANCH  15  16
ATOM     16  CG  GLN A  10      23.221  11.874 -46.934  0.00  0.00    +0.087 C 
BRANCH  16  17
ATOM     17  CD  GLN A  10      23.174  12.484 -48.325  0.00  0.00    +0.219 C 
ATOM     18  NE2 GLN A  10      23.472  13.789 -48.453  0.00  0.00    -0.329 N 
ATOM     19 HE21 GLN A  10      23.714  14.352 -47.613  0.00  0.00    +0.145 HD
ATOM     20 HE22 GLN A  10      23.460  14.235 -49.392  0.00  0.00    +0.145 HD
ATOM     21  OE1 GLN A  10      22.885  11.804 -49.313  0.00  0.00    -0.275 OA
ENDBRANCH  16  17
ENDBRANCH  15  16
ENDBRANCH  12  15
ENDBRANCH  10  12
ENDBRANCH   6   8
ENDBRANCH   3   6
ENDBRANCH   1   2
BRANCH   1  22
ATOM     22  N   CYS A   8      20.040  13.163 -44.300  0.00  0.00    -0.296 N 
ATOM     23  C   GLY A   7      20.080  14.448 -44.691  0.00  0.00    +0.243 C 
ATOM     24  O   GLY A   7      20.345  15.369 -43.903  0.00  0.00    -0.273 OA
ATOM     25  H   CYS A   8      19.789  12.431 -44.994  0.00  0.00    +0.150 HD
BRANCH  23  26
ATOM     26  CA  GLY A   7      19.803  14.773 -46.156  0.00  0.00    +0.176 C 
BRANCH  26  27
ATOM     27  N   GLY A   7      20.230  16.146 -46.431  0.00  0.00    -0.295 N 
ATOM     28  C   GLU A   6      21.508  16.526 -46.390  0.00  0.00    +0.241 C 
ATOM     29  O   GLU A   6      22.448  15.757 -46.180  0.00  0.00    -0.273 OA
ATOM     30  H   GLY A   7      19.507  16.855 -46.668  0.00  0.00    +0.150 HD
BRANCH  28  31
ATOM     31  CA  GLU A   6      21.777  18.005 -46.515  0.00  0.00    +0.149 C 
BRANCH  31  32
ATOM     32  N   GLU A   6      22.035  18.465 -45.155  0.00  0.00    -0.297 N 
ATOM     33  C   GLY A   5      21.055  18.932 -44.368  0.00  0.00    +0.243 C 
ATOM     34  O   GLY A   5      19.891  19.069 -44.758  0.00  0.00    -0.273 OA
ATOM     35  H   GLU A   6      23.006  18.430 -44.785  0.00  0.00    +0.150 HD
BRANCH  33  36
ATOM     36  CA  GLY A   5      21.419  19.310 -42.947  0.00  0.00    +0.176 C 
BRANCH  36  37
ATOM     37  N   GLY A   5      20.354  20.100 -42.320  0.00  0.00    -0.295 N 
ATOM     38  C   TRP A   4      20.522  20.760 -41.181  0.00  0.00    +0.241 C 
ATOM     39  O   TRP A   4      21.578  20.761 -40.551  0.00  0.00    -0.273 OA
ATOM     40  H   GLY A   5      19.427  20.145 -42.789  0.00  0.00    +0.150 HD
BRANCH  38  41
ATOM     41  CA  TRP A   4      19.339  21.597 -40.710  0.00  0.00    +0.153 C 
BRANCH  41  42
ATOM     42  N   TRP A   4      19.529  22.110 -39.334  0.00  0.00    -0.297 N 
ATOM     43  C   SER A   3      18.475  22.508 -38.589  0.00  0.00    +0.243 C 
ATOM     44  O   SER A   3      17.295  22.406 -38.983  0.00  0.00    -0.273 OA
ATOM     45  H   TRP A   4      20.488  22.165 -38.935  0.00  0.00    +0.150 HD
BRANCH  43  46
ATOM     46  CA  SER A   3      18.751  23.066 -37.170  0.00  0.00    +0.178 C 
BRANCH  46  47
ATOM     47  N   SER A   3      19.292  22.102 -36.229  0.00  0.00    -0.295 N 
ATOM     48  C   THR A   2      18.632  21.873 -35.084  0.00  0.00    +0.243 C 
ATOM     49  O   THR A   2      17.521  22.347 -34.838  0.00  0.00    -0.273 OA
ATOM     50  H   SER A   3      20.177  21.597 -36.439  0.00  0.00    +0.150 HD
BRANCH  48  51
ATOM     51  CA  THR A   2      19.321  20.994 -34.062  0.00  0.00    +0.176 C 
BRANCH  51  52
ATOM     52  N   THR A   2      19.517  21.749 -32.817  0.00  0.00    -0.295 N 
ATOM     53  H   THR A   2      19.168  21.319 -31.937  0.00  0.00    +0.150 HD
ATOM     54  C   ILE A   1      20.107  22.943 -32.726  0.00  0.00    +0.238 C 
ATOM     55  O   ILE A   1      20.558  23.535 -33.705  0.00  0.00    -0.274 OA
BRANCH  54  56
ATOM     56  CA  ILE A   1      20.162  23.613 -31.330  0.00  0.00    +0.145 C 
BRANCH  56  57
ATOM     57  CB  ILE A   1      19.321  24.918 -31.319  0.00  0.00    +0.025 C 
ATOM     58  CG2 ILE A   1      17.803  24.609 -31.634  0.00  0.00    +0.002 C 
BRANCH  57  59
ATOM     59  CG1 ILE A   1      19.488  25.720 -30.017  0.00  0.00    +0.002 C 
ATOM     60  CD1 ILE A   1      19.051  27.183 -30.152  0.00  0.00    +0.000 C 
ENDBRANCH  57  59
ENDBRANCH  56  57
BRANCH  56  61
ATOM     61  N   ILE A   1      21.600  23.821 -31.112  0.00  0.00    -0.238 NA
ATOM     62  H   ILE A   1      22.111  24.424 -31.788  0.00  0.00    +0.142 HD
ENDBRANCH  56  61
ENDBRANCH  54  56
ENDBRANCH  51  52
BRANCH  51  63
ATOM     63  CB  THR A   2      18.570  19.702 -33.767  0.00  0.00    +0.137 C 
ATOM     64  CG2 THR A   2      18.421  18.825 -35.012  0.00  0.00    +0.034 C 
BRANCH  63  65
ATOM     65  OG1 THR A   2      19.310  19.022 -32.749  0.00  0.00    -0.382 OA
ATOM     66  HG1 THR A   2      18.856  18.172 -32.525  0.00  0.00    +0.210 HD
ENDBRANCH  63  65
ENDBRANCH  51  63
ENDBRANCH  48  51
ENDBRANCH  46  47
BRANCH  46  67
ATOM     67  CB  SER A   3      19.650  24.303 -37.196  0.00  0.00    +0.166 C 
BRANCH  67  68
ATOM     68  OG  SER A   3      19.212  25.290 -38.114  0.00  0.00    -0.380 OA
ATOM     69  H   SER A   3      18.300  25.587 -37.868  0.00  0.00    +0.211 HD
ENDBRANCH  67  68
ENDBRANCH  46  67
ENDBRANCH  43  46
ENDBRANCH  41  42
BRANCH  41  70
ATOM     70  CB  TRP A   4      19.118  22.794 -41.684  0.00  0.00    +0.057 C 
BRANCH  70  71
ATOM     71  CG  TRP A   4      20.313  23.718 -41.794  0.00  0.00    -0.002 A 
ATOM     72  CD1 TRP A   4      20.660  24.724 -40.935  0.00  0.00    +0.068 A 
ATOM     73  NE1 TRP A   4      21.812  25.350 -41.373  0.00  0.00    -0.352 N 
ATOM     74  HE1 TRP A   4      22.305  26.123 -40.882  0.00  0.00    +0.166 HD
ATOM     75  CE2 TRP A   4      22.200  24.783 -42.567  0.00  0.00    +0.056 A 
ATOM     76  CZ2 TRP A   4      23.300  25.065 -43.391  0.00  0.00    +0.017 A 
ATOM     77  CH2 TRP A   4      23.474  24.279 -44.513  0.00  0.00    +0.001 A 
ATOM     78  CZ3 TRP A   4      22.587  23.239 -44.824  0.00  0.00    +0.000 A 
ATOM     79  CE3 TRP A   4      21.485  22.965 -44.018  0.00  0.00    +0.001 A 
ATOM     80  CD2 TRP A   4      21.302  23.723 -42.841  0.00  0.00    +0.013 A 
ENDBRANCH  70  71
ENDBRANCH  41  70
ENDBRANCH  38  41
ENDBRANCH  36  37
ENDBRANCH  33  36
ENDBRANCH  31  32
BRANCH  31  81
ATOM     81  CB  GLU A   6      22.978  18.281 -47.421  0.00  0.00    +0.041 C 
BRANCH  81  82
ATOM     82  CG  GLU A   6      22.686  17.992 -48.894  0.00  0.00    +0.116 C 
BRANCH  82  83
ATOM     83  CD  GLU A   6      23.864  18.351 -49.772  0.00  0.00    +0.365 C 
ATOM     84  OE2 GLU A   6      24.162  19.560 -49.908  0.00  0.00    -0.246 OA
ATOM     85  OE1 GLU A   6      24.565  17.418 -50.218  0.00  0.00    -0.246 OA
ENDBRANCH  82  83
ENDBRANCH  81  82
ENDBRANCH  31  81
ENDBRANCH  28  31
ENDBRANCH  26  27
ENDBRANCH  23  26
ENDBRANCH   1  22
BRANCH   1  86
ATOM     86  CB  CYS A   8      19.107  12.216 -42.207  0.00  0.00    +0.098 C 
BRANCH  86  87
ATOM     87  SG  CYS A   8      17.709  13.347 -42.206  0.00  0.00    -0.080 S 
BRANCH  87  88
ATOM     88  SG  TRP A   4      16.246  12.348 -41.214  0.00  0.00    -0.080 S 
BRANCH  88  89
ATOM     89  CB  TRP A   4      16.637  12.415 -39.435  0.00  0.00    +0.098 C 
BRANCH  89  90
ATOM     90  CA  TRP A   4      16.751  13.837 -38.874  0.00  0.00    +0.160 C 
BRANCH  90  91
ATOM     91  C   TRP A   4      15.387  14.490 -38.609  0.00  0.00    +0.242 C 
ATOM     92  O   TRP A   4      15.215  15.100 -37.556  0.00  0.00    -0.273 OA
ATOM     93  N   GLY A   5      14.462  14.458 -39.582  0.00  0.00    -0.297 N 
ATOM     94  H   GLY A   5      14.697  13.942 -40.454  0.00  0.00    +0.150 HD
BRANCH  93  95
ATOM     95  CA  GLY A   5      13.136  15.102 -39.504  0.00  0.00    +0.149 C 
BRANCH  95  96
ATOM     96  C   GLY A   5      12.429  14.834 -38.162  0.00  0.00    +0.241 C 
ATOM     97  N   GLU A   6      12.023  15.881 -37.450  0.00  0.00    -0.295 N 
ATOM     98  H   GLU A   6      12.173  16.834 -37.838  0.00  0.00    +0.150 HD
ATOM     99  O   GLY A   5      12.272  13.691 -37.798  0.00  0.00    -0.273 OA
BRANCH  97 100
ATOM    100  CA  GLU A   6      11.370  15.750 -36.137  0.00  0.00    +0.176 C 
BRANCH 100 101
ATOM    101  C   GLU A   6      12.283  16.013 -34.952  0.00  0.00    +0.243 C 
ATOM    102  O   GLU A   6      11.812  16.141 -33.822  0.00  0.00    -0.273 OA
ATOM    103  N   GLY A   7      13.606  16.080 -35.188  0.00  0.00    -0.296 N 
ATOM    104  H   GLY A   7      13.950  15.934 -36.159  0.00  0.00    +0.150 HD
BRANCH 103 105
ATOM    105  CA  GLY A   7      14.586  16.352 -34.122  0.00  0.00    +0.160 C 
BRANCH 105 106
ATOM    106  C   GLY A   7      14.859  17.832 -33.943  0.00  0.00    +0.241 C 
ATOM    107  O   GLY A   7      15.381  18.227 -32.891  0.00  0.00    -0.273 OA
ATOM    108  N   CYS A   8      14.570  18.652 -34.974  0.00  0.00    -0.295 N 
ATOM    109  H   CYS A   8      14.109  18.270 -35.824  0.00  0.00    +0.150 HD
BRANCH 108 110
ATOM    110  CA  CYS A   8      14.902  20.082 -34.905  0.00  0.00    +0.178 C 
BRANCH 110 111
ATOM    111  C   CYS A   8      14.358  20.797 -33.668  0.00  0.00    +0.243 C 
ATOM    112  O   CYS A   8      13.327  20.398 -33.121  0.00  0.00    -0.273 OA
ATOM    113  N   ALA A   9      15.101  21.811 -33.222  0.00  0.00    -0.295 N 
ATOM    114  H   ALA A   9      15.960  22.060 -33.753  0.00  0.00    +0.150 HD
BRANCH 113 115
ATOM    115  CA  ALA A   9      14.778  22.594 -32.028  0.00  0.00    +0.176 C 
BRANCH 115 116
ATOM    116  C   ALA A   9      15.347  21.977 -30.766  0.00  0.00    +0.243 C 
ATOM    117  O   ALA A   9      15.491  22.650 -29.741  0.00  0.00    -0.273 OA
ATOM    118  N   GLN A  10      15.644  20.682 -30.834  0.00  0.00    -0.296 N 
ATOM    119  H   GLN A  10      15.481  20.177 -31.729  0.00  0.00    +0.150 HD
BRANCH 118 120
ATOM    120  CA  GLN A  10      16.190  19.943 -29.699  0.00  0.00    +0.163 C 
BRANCH 120 121
ATOM    121  C   GLN A  10      17.644  20.284 -29.413  0.00  0.00    +0.229 C 
ATOM    122  O   GLN A  10      18.310  20.963 -30.199  0.00  0.00    -0.286 OA
ENDBRANCH 120 121
ENDBRANCH 118 120
ENDBRANCH 115 116
ENDBRANCH 113 115
ENDBRANCH 110 111
BRANCH 110 123
ATOM    123  CB  CYS A   8      14.507  20.814 -36.174  0.00  0.00    +0.166 C 
BRANCH 123 124
ATOM    124  O   CYS A   8      13.105  20.964 -36.281  0.00  0.00    -0.380 OA
ATOM    125  H   CYS A   8      12.679  20.071 -36.292  0.00  0.00    +0.211 HD
ENDBRANCH 123 124
ENDBRANCH 110 123
ENDBRANCH 108 110
ENDBRANCH 105 106
BRANCH 105 126
ATOM    126  CB  GLY A   7      15.919  15.647 -34.419  0.00  0.00    +0.143 C 
BRANCH 126 127
ATOM    127  CG  GLY A   7      15.801  14.161 -34.277  0.00  0.00    +0.367 C 
ATOM    128  OD2 GLY A   7      15.162  13.713 -33.311  0.00  0.00    -0.246 OA
ATOM    129  OD1 GLY A   7      16.383  13.441 -35.108  0.00  0.00    -0.246 OA
ENDBRANCH 126 127
ENDBRANCH 105 126
ENDBRANCH 103 105
ENDBRANCH 100 101
ENDBRANCH  97 100
ENDBRANCH  95  96
BRANCH  95 130
ATOM    130  CB  GLY A   5      12.269  14.632 -40.690  0.00  0.00    +0.029 C 
BRANCH 130 131
ATOM    131  CG  GLY A   5      12.852  15.095 -42.050  0.00  0.00    +0.000 C 
BRANCH 131 132
ATOM    132  CD  GLY A   5      11.804  14.922 -43.140  0.00  0.00    -0.024 C 
BRANCH 132 133
ATOM    133  CE  GLY A   5      12.333  15.358 -44.488  0.00  0.00    -0.086 C 
BRANCH 133 134
ATOM    134  NZ  GLY A   5      11.350  15.033 -45.556  0.00  0.00    +0.380 N 
ATOM    135  HZ1 GLY A   5      10.456  15.528 -45.365  0.00  0.00    -0.089 HD
ATOM    136  HZ2 GLY A   5      11.183  14.007 -45.571  0.00  0.00    -0.089 HD
ATOM    137  HZ3 GLY A   5      11.726  15.338 -46.476  0.00  0.00    -0.089 HD
ENDBRANCH 133 134
ENDBRANCH 132 133
ENDBRANCH 131 132
ENDBRANCH 130 131
ENDBRANCH  95 130
ENDBRANCH  93  95
ENDBRANCH  90  91
BRANCH  90 139
ATOM    138  C   SER A   3      18.858  14.015 -37.670  0.00  0.00    +0.241 C 
ATOM    139  N   TRP A   4      17.535  13.908 -37.636  0.00  0.00    -0.296 N 
ATOM    140  H   TRP A   4      17.047  13.874 -36.718  0.00  0.00    +0.150 HD
ATOM    141  O   SER A   3      19.495  13.947 -38.739  0.00  0.00    -0.273 OA
BRANCH 138 142
ATOM    142  CA  SER A   3      19.591  14.206 -36.307  0.00  0.00    +0.149 C 
ATOM    143  CB  SER A   3      19.548  15.688 -35.920  0.00  0.00    +0.031 C 
BRANCH 142 146
ATOM    144  C   THR A   2      21.346  12.560 -36.711  0.00  0.00    +0.241 C 
ATOM    145  O   THR A   2      20.614  11.595 -36.446  0.00  0.00    -0.273 OA
ATOM    146  N   SER A   3      20.962  13.831 -36.587  0.00  0.00    -0.297 N 
ATOM    147  H   SER A   3      21.674  14.582 -36.695  0.00  0.00    +0.150 HD
BRANCH 144 148
ATOM    148  CA  THR A   2      22.756  12.350 -37.250  0.00  0.00    +0.160 C 
BRANCH 148 150
ATOM    149  C   ILE A   1      24.400  10.525 -37.238  0.00  0.00    +0.238 C 
ATOM    150  N   THR A   2      23.148  10.951 -37.020  0.00  0.00    -0.297 N 
ATOM    151  H   THR A   2      22.435  10.275 -36.679  0.00  0.00    +0.150 HD
ATOM    152  O   ILE A   1      25.298  11.262 -37.657  0.00  0.00    -0.274 OA
BRANCH 149 153
ATOM    153  CA  ILE A   1      24.675   9.052 -37.039  0.00  0.00    +0.145 C 
BRANCH 153 154
ATOM    154  N   ILE A   1      25.318   8.546 -38.267  0.00  0.00    -0.238 NA
ATOM    155  H   ILE A   1      26.102   9.085 -38.686  0.00  0.00    +0.142 HD
ENDBRANCH 153 154
BRANCH 153 156
ATOM    156  CB  ILE A   1      25.521   8.817 -35.774  0.00  0.00    +0.026 C 
BRANCH 156 157
ATOM    157  CG  ILE A   1      25.611   7.361 -35.368  0.00  0.00    -0.000 C 
BRANCH 157 158
ATOM    158  CD  ILE A   1      26.350   7.175 -34.057  0.00  0.00    -0.024 C 
BRANCH 158 159
ATOM    159  CE  ILE A   1      26.598   5.707 -33.806  0.00  0.00    -0.086 C 
BRANCH 159 160
ATOM    160  NZ  ILE A   1      27.445   5.500 -32.605  0.00  0.00    +0.380 N 
ATOM    161  HZ1 ILE A   1      26.969   5.902 -31.773  0.00  0.00    -0.089 HD
ATOM    162  HZ2 ILE A   1      27.596   4.481 -32.460  0.00  0.00    -0.089 HD
ATOM    163  HZ3 ILE A   1      28.361   5.972 -32.743  0.00  0.00    -0.089 HD
ENDBRANCH 159 160
ENDBRANCH 158 159
ENDBRANCH 157 158
ENDBRANCH 156 157
ENDBRANCH 153 156
ENDBRANCH 149 153
ENDBRANCH 148 150
BRANCH 148 164
ATOM    164  CB  THR A   2      22.735  12.637 -38.787  0.00  0.00    +0.143 C 
BRANCH 164 165
ATOM    165  CG  THR A   2      22.715  14.091 -39.281  0.00  0.00    +0.367 C 
ATOM    166  OD2 THR A   2      22.757  15.002 -38.445  0.00  0.00    -0.246 OA
ATOM    167  OD1 THR A   2      22.589  14.305 -40.511  0.00  0.00    -0.246 OA
ENDBRANCH 164 165
ENDBRANCH 148 164
ENDBRANCH 144 148
ENDBRANCH 142 146
ENDBRANCH 138 142
ENDBRANCH  90 139
ENDBRANCH  89  90
ENDBRANCH  88  89
ENDBRANCH  87  88
ENDBRANCH  86  87
ENDBRANCH   1  86
TORSDOF 75
REMARK  Name = ../refined-set-2016/4x6p/4x6p_pocket.pdb
REMARK  250 active torsions:
REMARK  status: ('A' for Active; 'I' for Inactive)
REMARK    1  A    between atoms: _1  and  _5
REMARK    2  A    between atoms: _5  and  _6
REMARK    3  A    between atoms: _5  and  _8
REMARK    4  A    between atoms: _8  and  _9
REMARK    5  A    between atoms: _12  and  _14
REMARK    6  A    between atoms: _14  and  _15
REMARK    7  A    between atoms: _14  and  _17
REMARK    8  A    between atoms: _20  and  _22
REMARK    9  A    between atoms: _22  and  _23
REMARK   10  A    between atoms: _22  and  _25
REMARK   11  A    between atoms: _25  and  _26
REMARK   12  A    between atoms: _29  and  _31
REMARK   13  A    between atoms: _31  and  _32
REMARK   14  A    between atoms: _31  and  _34
REMARK   15  A    between atoms: _34  and  _35
REMARK   16  A    between atoms: _38  and  _40
REMARK   17  A    between atoms: _40  and  _41
REMARK   18  A    between atoms: _40  and  _43
REMARK   19  A    between atoms: _43  and  _44
REMARK   20  A    between atoms: _49  and  _51
REMARK   21  A    between atoms: _51  and  _52
REMARK   22  A    between atoms: _51  and  _54
REMARK   23  A    between atoms: _54  and  _55
REMARK   24  A    between atoms: _58  and  _60
REMARK   25  A    between atoms: _60  and  _61
REMARK   26  A    between atoms: _60  and  _63
REMARK   27  A    between atoms: _63  and  _64
REMARK   28  A    between atoms: _64  and  _65
REMARK   29  A    between atoms: _70  and  _72
REMARK   30  A    between atoms: _72  and  _73
REMARK   31  A    between atoms: _72  and  _75
REMARK   32  A    between atoms: _75  and  _76
REMARK   33  A    between atoms: _76  and  _77
REMARK   34  A    between atoms: _77  and  _78
REMARK   35  A    between atoms: _87  and  _89
REMARK   36  A    between atoms: _89  and  _90
REMARK   37  A    between atoms: _89  and  _92
REMARK   38  A    between atoms: _92  and  _93
REMARK   39  A    between atoms: _98  and  _100
REMARK   40  A    between atoms: _100  and  _101
REMARK   41  A    between atoms: _100  and  _103
REMARK   42  A    between atoms: _103  and  _104
REMARK   43  A    between atoms: _107  and  _109
REMARK   44  A    between atoms: _109  and  _110
REMARK   45  A    between atoms: _109  and  _112
REMARK   46  A    between atoms: _112  and  _113
REMARK   47  A    between atoms: _113  and  _148
REMARK   48  A    between atoms: _114  and  _116
REMARK   49  A    between atoms: _116  and  _117
REMARK   50  A    between atoms: _119  and  _121
REMARK   51  A    between atoms: _121  and  _122
REMARK   52  A    between atoms: _125  and  _127
REMARK   53  A    between atoms: _127  and  _128
REMARK   54  A    between atoms: _131  and  _133
REMARK   55  A    between atoms: _133  and  _134
REMARK   56  A    between atoms: _133  and  _136
REMARK   57  A    between atoms: _136  and  _137
REMARK   58  A    between atoms: _142  and  _144
REMARK   59  A    between atoms: _144  and  _145
REMARK   60  A    between atoms: _144  and  _147
REMARK   61  A    between atoms: _147  and  _148
REMARK   62  A    between atoms: _149  and  _151
REMARK   63  A    between atoms: _151  and  _152
REMARK   64  A    between atoms: _151  and  _154
REMARK   65  A    between atoms: _154  and  _155
REMARK   66  A    between atoms: _161  and  _163
REMARK   67  A    between atoms: _163  and  _164
REMARK   68  A    between atoms: _163  and  _166
REMARK   69  A    between atoms: _166  and  _167
REMARK   70  A    between atoms: _172  and  _173
REMARK   71  A    between atoms: _175  and  _177
REMARK   72  A    between atoms: _177  and  _178
REMARK   73  A    between atoms: _180  and  _182
REMARK   74  A    between atoms: _182  and  _183
REMARK   75  A    between atoms: _182  and  _185
REMARK   76  A    between atoms: _188  and  _190
REMARK   77  A    between atoms: _190  and  _191
REMARK   78  A    between atoms: _190  and  _193
REMARK   79  A    between atoms: _193  and  _194
REMARK   80  A    between atoms: _194  and  _195
REMARK   81  A    between atoms: _200  and  _202
REMARK   82  A    between atoms: _202  and  _203
REMARK   83  A    between atoms: _202  and  _205
REMARK   84  A    between atoms: _205  and  _206
REMARK   85  A    between atoms: _211  and  _212
REMARK   86  A    between atoms: _214  and  _216
REMARK   87  A    between atoms: _216  and  _217
REMARK   88  A    between atoms: _220  and  _222
REMARK   89  A    between atoms: _222  and  _223
REMARK   90  A    between atoms: _222  and  _225
REMARK   91  A    between atoms: _225  and  _226
REMARK   92  A    between atoms: _229  and  _231
REMARK   93  A    between atoms: _231  and  _232
REMARK   94  A    between atoms: _231  and  _234
REMARK   95  A    between atoms: _237  and  _239
REMARK   96  A    between atoms: _239  and  _240
REMARK   97  A    between atoms: _239  and  _242
REMARK   98  A    between atoms: _242  and  _243
REMARK   99  A    between atoms: _253  and  _255
REMARK  100  A    between atoms: _255  and  _256
REMARK  101  A    between atoms: _258  and  _260
REMARK  102  A    between atoms: _260  and  _261
REMARK  103  A    between atoms: _260  and  _263
REMARK  104  A    between atoms: _263  and  _264
REMARK  105  A    between atoms: _269  and  _270
REMARK  106  A    between atoms: _272  and  _274
REMARK  107  A    between atoms: _274  and  _275
REMARK  108  A    between atoms: _274  and  _277
REMARK  109  A    between atoms: _277  and  _278
REMARK  110  A    between atoms: _278  and  _279
REMARK  111  A    between atoms: _279  and  _280
REMARK  112  A    between atoms: _280  and  _281
REMARK  113  A    between atoms: _285  and  _287
REMARK  114  A    between atoms: _287  and  _288
REMARK  115  A    between atoms: _287  and  _290
REMARK  116  A    between atoms: _290  and  _291
REMARK  117  A    between atoms: _294  and  _296
REMARK  118  A    between atoms: _296  and  _297
REMARK  119  A    between atoms: _296  and  _299
REMARK  120  A    between atoms: _299  and  _300
REMARK  121  A    between atoms: _303  and  _305
REMARK  122  A    between atoms: _305  and  _306
REMARK  123  A    between atoms: _305  and  _308
REMARK  124  A    between atoms: _308  and  _309
REMARK  125  A    between atoms: _309  and  _310
REMARK  126  A    between atoms: _310  and  _311
REMARK  127  A    between atoms: _311  and  _312
REMARK  128  A    between atoms: _316  and  _318
REMARK  129  A    between atoms: _318  and  _319
REMARK  130  A    between atoms: _318  and  _321
REMARK  131  A    between atoms: _321  and  _322
REMARK  132  A    between atoms: _325  and  _327
REMARK  133  A    between atoms: _327  and  _328
REMARK  134  A    between atoms: _327  and  _330
REMARK  135  A    between atoms: _330  and  _331
REMARK  136  A    between atoms: _331  and  _332
REMARK  137  A    between atoms: _337  and  _339
REMARK  138  A    between atoms: _339  and  _340
REMARK  139  A    between atoms: _339  and  _342
REMARK  140  A    between atoms: _342  and  _343
REMARK  141  A    between atoms: _346  and  _348
REMARK  142  A    between atoms: _348  and  _349
REMARK  143  A    between atoms: _348  and  _351
REMARK  144  A    between atoms: _351  and  _352
REMARK  145  A    between atoms: _357  and  _358
REMARK  146  A    between atoms: _360  and  _362
REMARK  147  A    between atoms: _362  and  _363
REMARK  148  A    between atoms: _362  and  _365
REMARK  149  A    between atoms: _365  and  _366
REMARK  150  A    between atoms: _369  and  _371
REMARK  151  A    between atoms: _371  and  _372
REMARK  152  A    between atoms: _371  and  _374
REMARK  153  A    between atoms: _376  and  _378
REMARK  154  A    between atoms: _378  and  _379
REMARK  155  A    between atoms: _382  and  _384
REMARK  156  A    between atoms: _384  and  _385
REMARK  157  A    between atoms: _384  and  _387
REMARK  158  A    between atoms: _387  and  _388
REMARK  159  A    between atoms: _388  and  _389
REMARK  160  A    between atoms: _389  and  _390
REMARK  161  A    between atoms: _390  and  _391
REMARK  162  A    between atoms: _395  and  _397
REMARK  163  A    between atoms: _397  and  _398
REMARK  164  A    between atoms: _397  and  _400
REMARK  165  A    between atoms: _400  and  _401
REMARK  166  A    between atoms: _404  and  _406
REMARK  167  A    between atoms: _406  and  _407
REMARK  168  A    between atoms: _410  and  _412
REMARK  169  A    between atoms: _412  and  _413
REMARK  170  A    between atoms: _412  and  _415
REMARK  171  A    between atoms: _415  and  _416
REMARK  172  A    between atoms: _416  and  _530
REMARK  173  A    between atoms: _417  and  _419
REMARK  174  A    between atoms: _419  and  _420
REMARK  175  A    between atoms: _419  and  _422
REMARK  176  A    between atoms: _422  and  _423
REMARK  177  A    between atoms: _423  and  _424
REMARK  178  A    between atoms: _424  and  _425
REMARK  179  A    between atoms: _425  and  _426
REMARK  180  A    between atoms: _430  and  _432
REMARK  181  A    between atoms: _432  and  _433
REMARK  182  A    between atoms: _435  and  _437
REMARK  183  A    between atoms: _437  and  _438
REMARK  184  A    between atoms: _437  and  _440
REMARK  185  A    between atoms: _440  and  _441
REMARK  186  A    between atoms: _444  and  _446
REMARK  187  A    between atoms: _446  and  _447
REMARK  188  A    between atoms: _446  and  _449
REMARK  189  A    between atoms: _449  and  _450
REMARK  190  A    between atoms: _452  and  _454
REMARK  191  A    between atoms: _454  and  _455
REMARK  192  A    between atoms: _457  and  _459
REMARK  193  A    between atoms: _459  and  _460
REMARK  194  A    between atoms: _462  and  _464
REMARK  195  A    between atoms: _464  and  _465
REMARK  196  A    between atoms: _464  and  _467
REMARK  197  A    between atoms: _467  and  _468
REMARK  198  A    between atoms: _471  and  _473
REMARK  199  A    between atoms: _473  and  _474
REMARK  200  A    between atoms: _473  and  _476
REMARK  201  A    between atoms: _476  and  _477
REMARK  202  A    between atoms: _480  and  _482
REMARK  203  A    between atoms: _482  and  _483
REMARK  204  A    between atoms: _482  and  _485
REMARK  205  A    between atoms: _485  and  _486
REMARK  206  A    between atoms: _488  and  _490
REMARK  207  A    between atoms: _490  and  _491
REMARK  208  A    between atoms: _490  and  _493
REMARK  209  A    between atoms: _493  and  _494
REMARK  210  A    between atoms: _504  and  _506
REMARK  211  A    between atoms: _506  and  _507
REMARK  212  A    between atoms: _509  and  _511
REMARK  213  A    between atoms: _511  and  _512
REMARK  214  A    between atoms: _511  and  _514
REMARK  215  A    between atoms: _514  and  _515
REMARK  216  A    between atoms: _515  and  _516
REMARK  217  A    between atoms: _519  and  _521
REMARK  218  A    between atoms: _521  and  _522
REMARK  219  A    between atoms: _524  and  _526
REMARK  220  A    between atoms: _526  and  _527
REMARK  221  A    between atoms: _526  and  _529
REMARK  222  A    between atoms: _529  and  _530
REMARK  223  A    between atoms: _531  and  _533
REMARK  224  A    between atoms: _533  and  _534
REMARK  225  A    between atoms: _537  and  _539
REMARK  226  A    between atoms: _539  and  _540
REMARK  227  A    between atoms: _539  and  _542
REMARK  228  A    between atoms: _542  and  _543
REMARK  229  A    between atoms: _543  and  _544
REMARK  230  A    between atoms: _549  and  _551
REMARK  231  A    between atoms: _551  and  _552
REMARK  232  A    between atoms: _551  and  _554
REMARK  233  A    between atoms: _554  and  _555
REMARK  234  A    between atoms: _555  and  _556
REMARK  235  A    between atoms: _556  and  _557
REMARK  236  A    between atoms: _567  and  _568
REMARK  237  A    between atoms: _573  and  _575
REMARK  238  A    between atoms: _575  and  _576
REMARK  239  A    between atoms: _578  and  _580
REMARK  240  A    between atoms: _580  and  _581
REMARK  241  A    between atoms: _580  and  _583
REMARK  242  A    between atoms: _586  and  _588
REMARK  243  A    between atoms: _588  and  _589
REMARK  244  A    between atoms: _588  and  _591
REMARK  245  A    between atoms: _591  and  _592
REMARK  246  A    between atoms: _597  and  _598
REMARK  247  A    between atoms: _600  and  _602
REMARK  248  A    between atoms: _602  and  _603
REMARK  249  A    between atoms: _602  and  _605
REMARK  250  A    between atoms: _605  and  _606
REMARK                            x       y       z     vdW  Elec       q    Type
REMARK                         _______ _______ _______ _____ _____    ______ ____
ROOT
ATOM      1  C   GLY A   3      24.771  19.578 -38.843  0.00  0.00    +0.243 C 
ATOM      2  O   GLY A   3      25.916  19.766 -38.421  0.00  0.00    -0.273 OA
ATOM      3  N   VAL A   4      23.907  20.577 -39.082  0.00  0.00    -0.297 N 
ATOM      4  H   VAL A   4      22.982  20.341 -39.495  0.00  0.00    +0.150 HD
ENDROOT
BRANCH   3   5
ATOM      5  CA  VAL A   4      24.200  21.979 -38.791  0.00  0.00    +0.149 C 
BRANCH   5   6
ATOM      6  C   VAL A   4      23.316  22.426 -37.637  0.00  0.00    +0.241 C 
ATOM      7  N   TYR A   5      23.942  23.027 -36.619  0.00  0.00    -0.297 N 
ATOM      8  H   TYR A   5      24.958  23.228 -36.717  0.00  0.00    +0.150 HD
ATOM      9  O   VAL A   4      22.112  22.187 -37.640  0.00  0.00    -0.273 OA
BRANCH   7  10
ATOM     10  CA  TYR A   5      23.281  23.415 -35.381  0.00  0.00    +0.153 C 
BRANCH  10  11
ATOM     11  C   TYR A   5      23.529  24.887 -35.122  0.00  0.00    +0.241 C 
ATOM     12  N   THR A   6      22.587  25.548 -34.441  0.00  0.00    -0.296 N 
ATOM     13  H   THR A   6      21.705  25.058 -34.189  0.00  0.00    +0.150 HD
ATOM     14  O   TYR A   5      24.592  25.405 -35.485  0.00  0.00    -0.273 OA
BRANCH  12  15
ATOM     15  CA  THR A   6      22.770  26.957 -34.038  0.00  0.00    +0.164 C 
BRANCH  15  16
ATOM     16  CB  THR A   6      21.441  27.514 -33.517  0.00  0.00    +0.136 C 
ATOM     17  CG2 THR A   6      21.544  28.953 -32.981  0.00  0.00    +0.034 C 
BRANCH  16  18
ATOM     18  OG1 THR A   6      20.515  27.476 -34.592  0.00  0.00    -0.382 OA
ATOM     19  HG1 THR A   6      19.642  27.831 -34.287  0.00  0.00    +0.210 HD
ENDBRANCH  16  18
ENDBRANCH  15  16
BRANCH  15  20
ATOM     20  C   THR A   6      23.820  26.903 -32.903  0.00  0.00    +0.229 C 
ATOM     21  O   THR A   6      23.681  26.084 -31.975  0.00  0.00    -0.286 OA
ENDBRANCH  15  20
ENDBRANCH  12  15
ENDBRANCH  10  11
BRANCH  10  22
ATOM     22  CB  TYR A   5      23.873  22.588 -34.208  0.00  0.00    +0.055 C 
BRANCH  22  23
ATOM     23  CG  TYR A   5      23.684  21.086 -34.345  0.00  0.00    -0.020 A 
ATOM     24  CD2 TYR A   5      22.741  20.416 -33.580  0.00  0.00    -0.001 A 
ATOM     25  CE2 TYR A   5      22.531  19.051 -33.721  0.00  0.00    +0.036 A 
ATOM     26  CZ  TYR A   5      23.287  18.326 -34.619  0.00  0.00    +0.134 A 
ATOM     27  CE1 TYR A   5      24.249  18.961 -35.395  0.00  0.00    +0.036 A 
ATOM     28  CD1 TYR A   5      24.450  20.337 -35.247  0.00  0.00    -0.001 A 
BRANCH  26  29
ATOM     29  OH  TYR A   5      23.030  16.988 -34.712  0.00  0.00    -0.506 OA
ATOM     30  HH  TYR A   5      23.633  16.583 -35.385  0.00  0.00    +0.292 HD
ENDBRANCH  26  29
ENDBRANCH  22  23
ENDBRANCH  10  22
ENDBRANCH   7  10
ENDBRANCH   5   6
BRANCH   5  31
ATOM     31  CB  VAL A   4      24.098  22.911 -40.024  0.00  0.00    +0.027 C 
ATOM     32  CG2 VAL A   4      24.576  24.324 -39.669  0.00  0.00    +0.002 C 
ATOM     33  CG1 VAL A   4      24.906  22.349 -41.208  0.00  0.00    +0.002 C 
ENDBRANCH   5  31
ENDBRANCH   3   5
BRANCH   1  34
ATOM     34  CA  GLY A   3      24.332  18.185 -39.240  0.00  0.00    +0.176 C 
BRANCH  34  36
ATOM     35  C   PRO A   2      26.156  17.700 -40.784  0.00  0.00    +0.241 C 
ATOM     36  N   GLY A   3      25.494  17.421 -39.669  0.00  0.00    -0.295 N 
ATOM     37  H   GLY A   3      25.817  16.627 -39.080  0.00  0.00    +0.150 HD
ATOM     38  O   PRO A   2      25.805  18.564 -41.579  0.00  0.00    -0.273 OA
BRANCH  35  41
ATOM     39  C   ARG A   1      26.989  16.154 -43.314  0.00  0.00    +0.241 C 
ATOM     40  N   PRO A   2      27.793  16.823 -42.465  0.00  0.00    -0.272 N 
ATOM     41  CA  PRO A   2      27.429  16.889 -41.036  0.00  0.00    +0.152 C 
ATOM     42  CB  PRO A   2      28.659  17.560 -40.400  0.00  0.00    +0.031 C 
ATOM     43  CG  PRO A   2      29.274  18.362 -41.484  0.00  0.00    +0.024 C 
ATOM     44  CD  PRO A   2      29.032  17.591 -42.744  0.00  0.00    +0.094 C 
ATOM     45  O   ARG A   1      25.992  15.559 -42.903  0.00  0.00    -0.273 OA
BRANCH  39  46
ATOM     46  CA  ARG A   1      27.421  16.054 -44.796  0.00  0.00    +0.145 C 
BRANCH  46  47
ATOM     47  N   ARG A   1      28.494  15.063 -44.868  0.00  0.00    -0.238 NA
ATOM     48  H   ARG A   1      28.364  14.148 -44.391  0.00  0.00    +0.142 HD
ENDBRANCH  46  47
BRANCH  46  49
ATOM     49  CB  ARG A   1      26.252  15.701 -45.748  0.00  0.00    +0.030 C 
BRANCH  49  50
ATOM     50  CG  ARG A   1      26.579  15.829 -47.262  0.00  0.00    +0.045 C 
BRANCH  50  51
ATOM     51  CD  ARG A   1      26.950  17.261 -47.696  0.00  0.00    +0.174 C 
BRANCH  51  52
ATOM     52  NE  ARG A   1      27.253  17.354 -49.132  0.00  0.00    -0.265 N 
ATOM     53  CZ  ARG A   1      28.445  17.110 -49.671  0.00  0.00    +0.342 C 
ATOM     54  NH2 ARG A   1      29.474  16.767 -48.901  0.00  0.00    -0.292 N 
ATOM     55 HH21 ARG A   1      29.350  16.688 -47.871  0.00  0.00    +0.255 HD
ATOM     56 HH22 ARG A   1      30.403  16.578 -49.328  0.00  0.00    +0.255 HD
ATOM     57  NH1 ARG A   1      28.613  17.186 -50.982  0.00  0.00    -0.292 N 
ATOM     58 HH11 ARG A   1      29.546  16.994 -51.399  0.00  0.00    +0.255 HD
ATOM     59 HH12 ARG A   1      27.812  17.437 -51.595  0.00  0.00    +0.255 HD
ATOM     60  HE  ARG A   1      26.481  17.630 -49.772  0.00  0.00    +0.259 HD
ENDBRANCH  51  52
ENDBRANCH  50  51
ENDBRANCH  49  50
ENDBRANCH  46  49
ENDBRANCH  39  46
ENDBRANCH  35  41
ENDBRANCH  34  36
ENDBRANCH   1  34
TORSDOF 21
REMARK  Name = ../refined-set-2016/4x6p/4x6p_pocket.pdb
REMARK  250 active torsions:
REMARK  status: ('A' for Active; 'I' for Inactive)
REMARK    1  A    between atoms: _1  and  _5
REMARK    2  A    between atoms: _5  and  _6
REMARK    3  A    between atoms: _5  and  _8
REMARK    4  A    between atoms: _8  and  _9
REMARK    5  A    between atoms: _12  and  _14
REMARK    6  A    between atoms: _14  and  _15
REMARK    7  A    between atoms: _14  and  _17
REMARK    8  A    between atoms: _20  and  _22
REMARK    9  A    between atoms: _22  and  _23
REMARK   10  A    between atoms: _22  and  _25
REMARK   11  A    between atoms: _25  and  _26
REMARK   12  A    between atoms: _29  and  _31
REMARK   13  A    between atoms: _31  and  _32
REMARK   14  A    between atoms: _31  and  _34
REMARK   15  A    between atoms: _34  and  _35
REMARK   16  A    between atoms: _38  and  _40
REMARK   17  A    between atoms: _40  and  _41
REMARK   18  A    between atoms: _40  and  _43
REMARK   19  A    between atoms: _43  and  _44
REMARK   20  A    between atoms: _49  and  _51
REMARK   21  A    between atoms: _51  and  _52
REMARK   22  A    between atoms: _51  and  _54
REMARK   23  A    between atoms: _54  and  _55
REMARK   24  A    between atoms: _58  and  _60
REMARK   25  A    between atoms: _60  and  _61
REMARK   26  A    between atoms: _60  and  _63
REMARK   27  A    between atoms: _63  and  _64
REMARK   28  A    between atoms: _64  and  _65
REMARK   29  A    between atoms: _70  and  _72
REMARK   30  A    between atoms: _72  and  _73
REMARK   31  A    between atoms: _72  and  _75
REMARK   32  A    between atoms: _75  and  _76
REMARK   33  A    between atoms: _76  and  _77
REMARK   34  A    between atoms: _77  and  _78
REMARK   35  A    between atoms: _87  and  _89
REMARK   36  A    between atoms: _89  and  _90
REMARK   37  A    between atoms: _89  and  _92
REMARK   38  A    between atoms: _92  and  _93
REMARK   39  A    between atoms: _98  and  _100
REMARK   40  A    between atoms: _100  and  _101
REMARK   41  A    between atoms: _100  and  _103
REMARK   42  A    between atoms: _103  and  _104
REMARK   43  A    between atoms: _107  and  _109
REMARK   44  A    between atoms: _109  and  _110
REMARK   45  A    between atoms: _109  and  _112
REMARK   46  A    between atoms: _112  and  _113
REMARK   47  A    between atoms: _113  and  _148
REMARK   48  A    between atoms: _114  and  _116
REMARK   49  A    between atoms: _116  and  _117
REMARK   50  A    between atoms: _119  and  _121
REMARK   51  A    between atoms: _121  and  _122
REMARK   52  A    between atoms: _125  and  _127
REMARK   53  A    between atoms: _127  and  _128
REMARK   54  A    between atoms: _131  and  _133
REMARK   55  A    between atoms: _133  and  _134
REMARK   56  A    between atoms: _133  and  _136
REMARK   57  A    between atoms: _136  and  _137
REMARK   58  A    between atoms: _142  and  _144
REMARK   59  A    between atoms: _144  and  _145
REMARK   60  A    between atoms: _144  and  _147
REMARK   61  A    between atoms: _147  and  _148
REMARK   62  A    between atoms: _149  and  _151
REMARK   63  A    between atoms: _151  and  _152
REMARK   64  A    between atoms: _151  and  _154
REMARK   65  A    between atoms: _154  and  _155
REMARK   66  A    between atoms: _161  and  _163
REMARK   67  A    between atoms: _163  and  _164
REMARK   68  A    between atoms: _163  and  _166
REMARK   69  A    between atoms: _166  and  _167
REMARK   70  A    between atoms: _172  and  _173
REMARK   71  A    between atoms: _175  and  _177
REMARK   72  A    between atoms: _177  and  _178
REMARK   73  A    between atoms: _180  and  _182
REMARK   74  A    between atoms: _182  and  _183
REMARK   75  A    between atoms: _182  and  _185
REMARK   76  A    between atoms: _188  and  _190
REMARK   77  A    between atoms: _190  and  _191
REMARK   78  A    between atoms: _190  and  _193
REMARK   79  A    between atoms: _193  and  _194
REMARK   80  A    between atoms: _194  and  _195
REMARK   81  A    between atoms: _200  and  _202
REMARK   82  A    between atoms: _202  and  _203
REMARK   83  A    between atoms: _202  and  _205
REMARK   84  A    between atoms: _205  and  _206
REMARK   85  A    between atoms: _211  and  _212
REMARK   86  A    between atoms: _214  and  _216
REMARK   87  A    between atoms: _216  and  _217
REMARK   88  A    between atoms: _220  and  _222
REMARK   89  A    between atoms: _222  and  _223
REMARK   90  A    between atoms: _222  and  _225
REMARK   91  A    between atoms: _225  and  _226
REMARK   92  A    between atoms: _229  and  _231
REMARK   93  A    between atoms: _231  and  _232
REMARK   94  A    between atoms: _231  and  _234
REMARK   95  A    between atoms: _237  and  _239
REMARK   96  A    between atoms: _239  and  _240
REMARK   97  A    between atoms: _239  and  _242
REMARK   98  A    between atoms: _242  and  _243
REMARK   99  A    between atoms: _253  and  _255
REMARK  100  A    between atoms: _255  and  _256
REMARK  101  A    between atoms: _258  and  _260
REMARK  102  A    between atoms: _260  and  _261
REMARK  103  A    between atoms: _260  and  _263
REMARK  104  A    between atoms: _263  and  _264
REMARK  105  A    between atoms: _269  and  _270
REMARK  106  A    between atoms: _272  and  _274
REMARK  107  A    between atoms: _274  and  _275
REMARK  108  A    between atoms: _274  and  _277
REMARK  109  A    between atoms: _277  and  _278
REMARK  110  A    between atoms: _278  and  _279
REMARK  111  A    between atoms: _279  and  _280
REMARK  112  A    between atoms: _280  and  _281
REMARK  113  A    between atoms: _285  and  _287
REMARK  114  A    between atoms: _287  and  _288
REMARK  115  A    between atoms: _287  and  _290
REMARK  116  A    between atoms: _290  and  _291
REMARK  117  A    between atoms: _294  and  _296
REMARK  118  A    between atoms: _296  and  _297
REMARK  119  A    between atoms: _296  and  _299
REMARK  120  A    between atoms: _299  and  _300
REMARK  121  A    between atoms: _303  and  _305
REMARK  122  A    between atoms: _305  and  _306
REMARK  123  A    between atoms: _305  and  _308
REMARK  124  A    between atoms: _308  and  _309
REMARK  125  A    between atoms: _309  and  _310
REMARK  126  A    between atoms: _310  and  _311
REMARK  127  A    between atoms: _311  and  _312
REMARK  128  A    between atoms: _316  and  _318
REMARK  129  A    between atoms: _318  and  _319
REMARK  130  A    between atoms: _318  and  _321
REMARK  131  A    between atoms: _321  and  _322
REMARK  132  A    between atoms: _325  and  _327
REMARK  133  A    between atoms: _327  and  _328
REMARK  134  A    between atoms: _327  and  _330
REMARK  135  A    between atoms: _330  and  _331
REMARK  136  A    between atoms: _331  and  _332
REMARK  137  A    between atoms: _337  and  _339
REMARK  138  A    between atoms: _339  and  _340
REMARK  139  A    between atoms: _339  and  _342
REMARK  140  A    between atoms: _342  and  _343
REMARK  141  A    between atoms: _346  and  _348
REMARK  142  A    between atoms: _348  and  _349
REMARK  143  A    between atoms: _348  and  _351
REMARK  144  A    between atoms: _351  and  _352
REMARK  145  A    between atoms: _357  and  _358
REMARK  146  A    between atoms: _360  and  _362
REMARK  147  A    between atoms: _362  and  _363
REMARK  148  A    between atoms: _362  and  _365
REMARK  149  A    between atoms: _365  and  _366
REMARK  150  A    between atoms: _369  and  _371
REMARK  151  A    between atoms: _371  and  _372
REMARK  152  A    between atoms: _371  and  _374
REMARK  153  A    between atoms: _376  and  _378
REMARK  154  A    between atoms: _378  and  _379
REMARK  155  A    between atoms: _382  and  _384
REMARK  156  A    between atoms: _384  and  _385
REMARK  157  A    between atoms: _384  and  _387
REMARK  158  A    between atoms: _387  and  _388
REMARK  159  A    between atoms: _388  and  _389
REMARK  160  A    between atoms: _389  and  _390
REMARK  161  A    between atoms: _390  and  _391
REMARK  162  A    between atoms: _395  and  _397
REMARK  163  A    between atoms: _397  and  _398
REMARK  164  A    between atoms: _397  and  _400
REMARK  165  A    between atoms: _400  and  _401
REMARK  166  A    between atoms: _404  and  _406
REMARK  167  A    between atoms: _406  and  _407
REMARK  168  A    between atoms: _410  and  _412
REMARK  169  A    between atoms: _412  and  _413
REMARK  170  A    between atoms: _412  and  _415
REMARK  171  A    between atoms: _415  and  _416
REMARK  172  A    between atoms: _416  and  _530
REMARK  173  A    between atoms: _417  and  _419
REMARK  174  A    between atoms: _419  and  _420
REMARK  175  A    between atoms: _419  and  _422
REMARK  176  A    between atoms: _422  and  _423
REMARK  177  A    between atoms: _423  and  _424
REMARK  178  A    between atoms: _424  and  _425
REMARK  179  A    between atoms: _425  and  _426
REMARK  180  A    between atoms: _430  and  _432
REMARK  181  A    between atoms: _432  and  _433
REMARK  182  A    between atoms: _435  and  _437
REMARK  183  A    between atoms: _437  and  _438
REMARK  184  A    between atoms: _437  and  _440
REMARK  185  A    between atoms: _440  and  _441
REMARK  186  A    between atoms: _444  and  _446
REMARK  187  A    between atoms: _446  and  _447
REMARK  188  A    between atoms: _446  and  _449
REMARK  189  A    between atoms: _449  and  _450
REMARK  190  A    between atoms: _452  and  _454
REMARK  191  A    between atoms: _454  and  _455
REMARK  192  A    between atoms: _457  and  _459
REMARK  193  A    between atoms: _459  and  _460
REMARK  194  A    between atoms: _462  and  _464
REMARK  195  A    between atoms: _464  and  _465
REMARK  196  A    between atoms: _464  and  _467
REMARK  197  A    between atoms: _467  and  _468
REMARK  198  A    between atoms: _471  and  _473
REMARK  199  A    between atoms: _473  and  _474
REMARK  200  A    between atoms: _473  and  _476
REMARK  201  A    between atoms: _476  and  _477
REMARK  202  A    between atoms: _480  and  _482
REMARK  203  A    between atoms: _482  and  _483
REMARK  204  A    between atoms: _482  and  _485
REMARK  205  A    between atoms: _485  and  _486
REMARK  206  A    between atoms: _488  and  _490
REMARK  207  A    between atoms: _490  and  _491
REMARK  208  A    between atoms: _490  and  _493
REMARK  209  A    between atoms: _493  and  _494
REMARK  210  A    between atoms: _504  and  _506
REMARK  211  A    between atoms: _506  and  _507
REMARK  212  A    between atoms: _509  and  _511
REMARK  213  A    between atoms: _511  and  _512
REMARK  214  A    between atoms: _511  and  _514
REMARK  215  A    between atoms: _514  and  _515
REMARK  216  A    between atoms: _515  and  _516
REMARK  217  A    between atoms: _519  and  _521
REMARK  218  A    between atoms: _521  and  _522
REMARK  219  A    between atoms: _524  and  _526
REMARK  220  A    between atoms: _526  and  _527
REMARK  221  A    between atoms: _526  and  _529
REMARK  222  A    between atoms: _529  and  _530
REMARK  223  A    between atoms: _531  and  _533
REMARK  224  A    between atoms: _533  and  _534
REMARK  225  A    between atoms: _537  and  _539
REMARK  226  A    between atoms: _539  and  _540
REMARK  227  A    between atoms: _539  and  _542
REMARK  228  A    between atoms: _542  and  _543
REMARK  229  A    between atoms: _543  and  _544
REMARK  230  A    between atoms: _549  and  _551
REMARK  231  A    between atoms: _551  and  _552
REMARK  232  A    between atoms: _551  and  _554
REMARK  233  A    between atoms: _554  and  _555
REMARK  234  A    between atoms: _555  and  _556
REMARK  235  A    between atoms: _556  and  _557
REMARK  236  A    between atoms: _567  and  _568
REMARK  237  A    between atoms: _573  and  _575
REMARK  238  A    between atoms: _575  and  _576
REMARK  239  A    between atoms: _578  and  _580
REMARK  240  A    between atoms: _580  and  _581
REMARK  241  A    between atoms: _580  and  _583
REMARK  242  A    between atoms: _586  and  _588
REMARK  243  A    between atoms: _588  and  _589
REMARK  244  A    between atoms: _588  and  _591
REMARK  245  A    between atoms: _591  and  _592
REMARK  246  A    between atoms: _597  and  _598
REMARK  247  A    between atoms: _600  and  _602
REMARK  248  A    between atoms: _602  and  _603
REMARK  249  A    between atoms: _602  and  _605
REMARK  250  A    between atoms: _605  and  _606
REMARK                            x       y       z     vdW  Elec       q    Type
REMARK                         _______ _______ _______ _____ _____    ______ ____
ROOT
ATOM      1  O   HOH     1      11.953  19.030 -43.327  0.00  0.00    +0.000 OA
ENDROOT
TORSDOF 0
REMARK  Name = ../refined-set-2016/4x6p/4x6p_pocket.pdb
REMARK  250 active torsions:
REMARK  status: ('A' for Active; 'I' for Inactive)
REMARK    1  A    between atoms: _1  and  _5
REMARK    2  A    between atoms: _5  and  _6
REMARK    3  A    between atoms: _5  and  _8
REMARK    4  A    between atoms: _8  and  _9
REMARK    5  A    between atoms: _12  and  _14
REMARK    6  A    between atoms: _14  and  _15
REMARK    7  A    between atoms: _14  and  _17
REMARK    8  A    between atoms: _20  and  _22
REMARK    9  A    between atoms: _22  and  _23
REMARK   10  A    between atoms: _22  and  _25
REMARK   11  A    between atoms: _25  and  _26
REMARK   12  A    between atoms: _29  and  _31
REMARK   13  A    between atoms: _31  and  _32
REMARK   14  A    between atoms: _31  and  _34
REMARK   15  A    between atoms: _34  and  _35
REMARK   16  A    between atoms: _38  and  _40
REMARK   17  A    between atoms: _40  and  _41
REMARK   18  A    between atoms: _40  and  _43
REMARK   19  A    between atoms: _43  and  _44
REMARK   20  A    between atoms: _49  and  _51
REMARK   21  A    between atoms: _51  and  _52
REMARK   22  A    between atoms: _51  and  _54
REMARK   23  A    between atoms: _54  and  _55
REMARK   24  A    between atoms: _58  and  _60
REMARK   25  A    between atoms: _60  and  _61
REMARK   26  A    between atoms: _60  and  _63
REMARK   27  A    between atoms: _63  and  _64
REMARK   28  A    between atoms: _64  and  _65
REMARK   29  A    between atoms: _70  and  _72
REMARK   30  A    between atoms: _72  and  _73
REMARK   31  A    between atoms: _72  and  _75
REMARK   32  A    between atoms: _75  and  _76
REMARK   33  A    between atoms: _76  and  _77
REMARK   34  A    between atoms: _77  and  _78
REMARK   35  A    between atoms: _87  and  _89
REMARK   36  A    between atoms: _89  and  _90
REMARK   37  A    between atoms: _89  and  _92
REMARK   38  A    between atoms: _92  and  _93
REMARK   39  A    between atoms: _98  and  _100
REMARK   40  A    between atoms: _100  and  _101
REMARK   41  A    between atoms: _100  and  _103
REMARK   42  A    between atoms: _103  and  _104
REMARK   43  A    between atoms: _107  and  _109
REMARK   44  A    between atoms: _109  and  _110
REMARK   45  A    between atoms: _109  and  _112
REMARK   46  A    between atoms: _112  and  _113
REMARK   47  A    between atoms: _113  and  _148
REMARK   48  A    between atoms: _114  and  _116
REMARK   49  A    between atoms: _116  and  _117
REMARK   50  A    between atoms: _119  and  _121
REMARK   51  A    between atoms: _121  and  _122
REMARK   52  A    between atoms: _125  and  _127
REMARK   53  A    between atoms: _127  and  _128
REMARK   54  A    between atoms: _131  and  _133
REMARK   55  A    between atoms: _133  and  _134
REMARK   56  A    between atoms: _133  and  _136
REMARK   57  A    between atoms: _136  and  _137
REMARK   58  A    between atoms: _142  and  _144
REMARK   59  A    between atoms: _144  and  _145
REMARK   60  A    between atoms: _144  and  _147
REMARK   61  A    between atoms: _147  and  _148
REMARK   62  A    between atoms: _149  and  _151
REMARK   63  A    between atoms: _151  and  _152
REMARK   64  A    between atoms: _151  and  _154
REMARK   65  A    between atoms: _154  and  _155
REMARK   66  A    between atoms: _161  and  _163
REMARK   67  A    between atoms: _163  and  _164
REMARK   68  A    between atoms: _163  and  _166
REMARK   69  A    between atoms: _166  and  _167
REMARK   70  A    between atoms: _172  and  _173
REMARK   71  A    between atoms: _175  and  _177
REMARK   72  A    between atoms: _177  and  _178
REMARK   73  A    between atoms: _180  and  _182
REMARK   74  A    between atoms: _182  and  _183
REMARK   75  A    between atoms: _182  and  _185
REMARK   76  A    between atoms: _188  and  _190
REMARK   77  A    between atoms: _190  and  _191
REMARK   78  A    between atoms: _190  and  _193
REMARK   79  A    between atoms: _193  and  _194
REMARK   80  A    between atoms: _194  and  _195
REMARK   81  A    between atoms: _200  and  _202
REMARK   82  A    between atoms: _202  and  _203
REMARK   83  A    between atoms: _202  and  _205
REMARK   84  A    between atoms: _205  and  _206
REMARK   85  A    between atoms: _211  and  _212
REMARK   86  A    between atoms: _214  and  _216
REMARK   87  A    between atoms: _216  and  _217
REMARK   88  A    between atoms: _220  and  _222
REMARK   89  A    between atoms: _222  and  _223
REMARK   90  A    between atoms: _222  and  _225
REMARK   91  A    between atoms: _225  and  _226
REMARK   92  A    between atoms: _229  and  _231
REMARK   93  A    between atoms: _231  and  _232
REMARK   94  A    between atoms: _231  and  _234
REMARK   95  A    between atoms: _237  and  _239
REMARK   96  A    between atoms: _239  and  _240
REMARK   97  A    between atoms: _239  and  _242
REMARK   98  A    between atoms: _242  and  _243
REMARK   99  A    between atoms: _253  and  _255
REMARK  100  A    between atoms: _255  and  _256
REMARK  101  A    between atoms: _258  and  _260
REMARK  102  A    between atoms: _260  and  _261
REMARK  103  A    between atoms: _260  and  _263
REMARK  104  A    between atoms: _263  and  _264
REMARK  105  A    between atoms: _269  and  _270
REMARK  106  A    between atoms: _272  and  _274
REMARK  107  A    between atoms: _274  and  _275
REMARK  108  A    between atoms: _274  and  _277
REMARK  109  A    between atoms: _277  and  _278
REMARK  110  A    between atoms: _278  and  _279
REMARK  111  A    between atoms: _279  and  _280
REMARK  112  A    between atoms: _280  and  _281
REMARK  113  A    between atoms: _285  and  _287
REMARK  114  A    between atoms: _287  and  _288
REMARK  115  A    between atoms: _287  and  _290
REMARK  116  A    between atoms: _290  and  _291
REMARK  117  A    between atoms: _294  and  _296
REMARK  118  A    between atoms: _296  and  _297
REMARK  119  A    between atoms: _296  and  _299
REMARK  120  A    between atoms: _299  and  _300
REMARK  121  A    between atoms: _303  and  _305
REMARK  122  A    between atoms: _305  and  _306
REMARK  123  A    between atoms: _305  and  _308
REMARK  124  A    between atoms: _308  and  _309
REMARK  125  A    between atoms: _309  and  _310
REMARK  126  A    between atoms: _310  and  _311
REMARK  127  A    between atoms: _311  and  _312
REMARK  128  A    between atoms: _316  and  _318
REMARK  129  A    between atoms: _318  and  _319
REMARK  130  A    between atoms: _318  and  _321
REMARK  131  A    between atoms: _321  and  _322
REMARK  132  A    between atoms: _325  and  _327
REMARK  133  A    between atoms: _327  and  _328
REMARK  134  A    between atoms: _327  and  _330
REMARK  135  A    between atoms: _330  and  _331
REMARK  136  A    between atoms: _331  and  _332
REMARK  137  A    between atoms: _337  and  _339
REMARK  138  A    between atoms: _339  and  _340
REMARK  139  A    between atoms: _339  and  _342
REMARK  140  A    between atoms: _342  and  _343
REMARK  141  A    between atoms: _346  and  _348
REMARK  142  A    between atoms: _348  and  _349
REMARK  143  A    between atoms: _348  and  _351
REMARK  144  A    between atoms: _351  and  _352
REMARK  145  A    between atoms: _357  and  _358
REMARK  146  A    between atoms: _360  and  _362
REMARK  147  A    between atoms: _362  and  _363
REMARK  148  A    between atoms: _362  and  _365
REMARK  149  A    between atoms: _365  and  _366
REMARK  150  A    between atoms: _369  and  _371
REMARK  151  A    between atoms: _371  and  _372
REMARK  152  A    between atoms: _371  and  _374
REMARK  153  A    between atoms: _376  and  _378
REMARK  154  A    between atoms: _378  and  _379
REMARK  155  A    between atoms: _382  and  _384
REMARK  156  A    between atoms: _384  and  _385
REMARK  157  A    between atoms: _384  and  _387
REMARK  158  A    between atoms: _387  and  _388
REMARK  159  A    between atoms: _388  and  _389
REMARK  160  A    between atoms: _389  and  _390
REMARK  161  A    between atoms: _390  and  _391
REMARK  162  A    between atoms: _395  and  _397
REMARK  163  A    between atoms: _397  and  _398
REMARK  164  A    between atoms: _397  and  _400
REMARK  165  A    between atoms: _400  and  _401
REMARK  166  A    between atoms: _404  and  _406
REMARK  167  A    between atoms: _406  and  _407
REMARK  168  A    between atoms: _410  and  _412
REMARK  169  A    between atoms: _412  and  _413
REMARK  170  A    between atoms: _412  and  _415
REMARK  171  A    between atoms: _415  and  _416
REMARK  172  A    between atoms: _416  and  _530
REMARK  173  A    between atoms: _417  and  _419
REMARK  174  A    between atoms: _419  and  _420
REMARK  175  A    between atoms: _419  and  _422
REMARK  176  A    between atoms: _422  and  _423
REMARK  177  A    between atoms: _423  and  _424
REMARK  178  A    between atoms: _424  and  _425
REMARK  179  A    between atoms: _425  and  _426
REMARK  180  A    between atoms: _430  and  _432
REMARK  181  A    between atoms: _432  and  _433
REMARK  182  A    between atoms: _435  and  _437
REMARK  183  A    between atoms: _437  and  _438
REMARK  184  A    between atoms: _437  and  _440
REMARK  185  A    between atoms: _440  and  _441
REMARK  186  A    between atoms: _444  and  _446
REMARK  187  A    between atoms: _446  and  _447
REMARK  188  A    between atoms: _446  and  _449
REMARK  189  A    between atoms: _449  and  _450
REMARK  190  A    between atoms: _452  and  _454
REMARK  191  A    between atoms: _454  and  _455
REMARK  192  A    between atoms: _457  and  _459
REMARK  193  A    between atoms: _459  and  _460
REMARK  194  A    between atoms: _462  and  _464
REMARK  195  A    between atoms: _464  and  _465
REMARK  196  A    between atoms: _464  and  _467
REMARK  197  A    between atoms: _467  and  _468
REMARK  198  A    between atoms: _471  and  _473
REMARK  199  A    between atoms: _473  and  _474
REMARK  200  A    between atoms: _473  and  _476
REMARK  201  A    between atoms: _476  and  _477
REMARK  202  A    between atoms: _480  and  _482
REMARK  203  A    between atoms: _482  and  _483
REMARK  204  A    between atoms: _482  and  _485
REMARK  205  A    between atoms: _485  and  _486
REMARK  206  A    between atoms: _488  and  _490
REMARK  207  A    between atoms: _490  and  _491
REMARK  208  A    between atoms: _490  and  _493
REMARK  209  A    between atoms: _493  and  _494
REMARK  210  A    between atoms: _504  and  _506
REMARK  211  A    between atoms: _506  and  _507
REMARK  212  A    between atoms: _509  and  _511
REMARK  213  A    between atoms: _511  and  _512
REMARK  214  A    between atoms: _511  and  _514
REMARK  215  A    between atoms: _514  and  _515
REMARK  216  A    between atoms: _515  and  _516
REMARK  217  A    between atoms: _519  and  _521
REMARK  218  A    between atoms: _521  and  _522
REMARK  219  A    between atoms: _524  and  _526
REMARK  220  A    between atoms: _526  and  _527
REMARK  221  A    between atoms: _526  and  _529
REMARK  222  A    between atoms: _529  and  _530
REMARK  223  A    between atoms: _531  and  _533
REMARK  224  A    between atoms: _533  and  _534
REMARK  225  A    between atoms: _537  and  _539
REMARK  226  A    between atoms: _539  and  _540
REMARK  227  A    between atoms: _539  and  _542
REMARK  228  A    between atoms: _542  and  _543
REMARK  229  A    between atoms: _543  and  _544
REMARK  230  A    between atoms: _549  and  _551
REMARK  231  A    between atoms: _551  and  _552
REMARK  232  A    between atoms: _551  and  _554
REMARK  233  A    between atoms: _554  and  _555
REMARK  234  A    between atoms: _555  and  _556
REMARK  235  A    between atoms: _556  and  _557
REMARK  236  A    between atoms: _567  and  _568
REMARK  237  A    between atoms: _573  and  _575
REMARK  238  A    between atoms: _575  and  _576
REMARK  239  A    between atoms: _578  and  _580
REMARK  240  A    between atoms: _580  and  _581
REMARK  241  A    between atoms: _580  and  _583
REMARK  242  A    between atoms: _586  and  _588
REMARK  243  A    between atoms: _588  and  _589
REMARK  244  A    between atoms: _588  and  _591
REMARK  245  A    between atoms: _591  and  _592
REMARK  246  A    between atoms: _597  and  _598
REMARK  247  A    between atoms: _600  and  _602
REMARK  248  A    between atoms: _602  and  _603
REMARK  249  A    between atoms: _602  and  _605
REMARK  250  A    between atoms: _605  and  _606
REMARK                            x       y       z     vdW  Elec       q    Type
REMARK                         _______ _______ _______ _____ _____    ______ ____
ROOT
ATOM      1  O   HOH     1       5.366  24.951 -37.921  0.00  0.00    +0.000 OA
ENDROOT
TORSDOF 0
REMARK  Name = ../refined-set-2016/4x6p/4x6p_pocket.pdb
REMARK  250 active torsions:
REMARK  status: ('A' for Active; 'I' for Inactive)
REMARK    1  A    between atoms: _1  and  _5
REMARK    2  A    between atoms: _5  and  _6
REMARK    3  A    between atoms: _5  and  _8
REMARK    4  A    between atoms: _8  and  _9
REMARK    5  A    between atoms: _12  and  _14
REMARK    6  A    between atoms: _14  and  _15
REMARK    7  A    between atoms: _14  and  _17
REMARK    8  A    between atoms: _20  and  _22
REMARK    9  A    between atoms: _22  and  _23
REMARK   10  A    between atoms: _22  and  _25
REMARK   11  A    between atoms: _25  and  _26
REMARK   12  A    between atoms: _29  and  _31
REMARK   13  A    between atoms: _31  and  _32
REMARK   14  A    between atoms: _31  and  _34
REMARK   15  A    between atoms: _34  and  _35
REMARK   16  A    between atoms: _38  and  _40
REMARK   17  A    between atoms: _40  and  _41
REMARK   18  A    between atoms: _40  and  _43
REMARK   19  A    between atoms: _43  and  _44
REMARK   20  A    between atoms: _49  and  _51
REMARK   21  A    between atoms: _51  and  _52
REMARK   22  A    between atoms: _51  and  _54
REMARK   23  A    between atoms: _54  and  _55
REMARK   24  A    between atoms: _58  and  _60
REMARK   25  A    between atoms: _60  and  _61
REMARK   26  A    between atoms: _60  and  _63
REMARK   27  A    between atoms: _63  and  _64
REMARK   28  A    between atoms: _64  and  _65
REMARK   29  A    between atoms: _70  and  _72
REMARK   30  A    between atoms: _72  and  _73
REMARK   31  A    between atoms: _72  and  _75
REMARK   32  A    between atoms: _75  and  _76
REMARK   33  A    between atoms: _76  and  _77
REMARK   34  A    between atoms: _77  and  _78
REMARK   35  A    between atoms: _87  and  _89
REMARK   36  A    between atoms: _89  and  _90
REMARK   37  A    between atoms: _89  and  _92
REMARK   38  A    between atoms: _92  and  _93
REMARK   39  A    between atoms: _98  and  _100
REMARK   40  A    between atoms: _100  and  _101
REMARK   41  A    between atoms: _100  and  _103
REMARK   42  A    between atoms: _103  and  _104
REMARK   43  A    between atoms: _107  and  _109
REMARK   44  A    between atoms: _109  and  _110
REMARK   45  A    between atoms: _109  and  _112
REMARK   46  A    between atoms: _112  and  _113
REMARK   47  A    between atoms: _113  and  _148
REMARK   48  A    between atoms: _114  and  _116
REMARK   49  A    between atoms: _116  and  _117
REMARK   50  A    between atoms: _119  and  _121
REMARK   51  A    between atoms: _121  and  _122
REMARK   52  A    between atoms: _125  and  _127
REMARK   53  A    between atoms: _127  and  _128
REMARK   54  A    between atoms: _131  and  _133
REMARK   55  A    between atoms: _133  and  _134
REMARK   56  A    between atoms: _133  and  _136
REMARK   57  A    between atoms: _136  and  _137
REMARK   58  A    between atoms: _142  and  _144
REMARK   59  A    between atoms: _144  and  _145
REMARK   60  A    between atoms: _144  and  _147
REMARK   61  A    between atoms: _147  and  _148
REMARK   62  A    between atoms: _149  and  _151
REMARK   63  A    between atoms: _151  and  _152
REMARK   64  A    between atoms: _151  and  _154
REMARK   65  A    between atoms: _154  and  _155
REMARK   66  A    between atoms: _161  and  _163
REMARK   67  A    between atoms: _163  and  _164
REMARK   68  A    between atoms: _163  and  _166
REMARK   69  A    between atoms: _166  and  _167
REMARK   70  A    between atoms: _172  and  _173
REMARK   71  A    between atoms: _175  and  _177
REMARK   72  A    between atoms: _177  and  _178
REMARK   73  A    between atoms: _180  and  _182
REMARK   74  A    between atoms: _182  and  _183
REMARK   75  A    between atoms: _182  and  _185
REMARK   76  A    between atoms: _188  and  _190
REMARK   77  A    between atoms: _190  and  _191
REMARK   78  A    between atoms: _190  and  _193
REMARK   79  A    between atoms: _193  and  _194
REMARK   80  A    between atoms: _194  and  _195
REMARK   81  A    between atoms: _200  and  _202
REMARK   82  A    between atoms: _202  and  _203
REMARK   83  A    between atoms: _202  and  _205
REMARK   84  A    between atoms: _205  and  _206
REMARK   85  A    between atoms: _211  and  _212
REMARK   86  A    between atoms: _214  and  _216
REMARK   87  A    between atoms: _216  and  _217
REMARK   88  A    between atoms: _220  and  _222
REMARK   89  A    between atoms: _222  and  _223
REMARK   90  A    between atoms: _222  and  _225
REMARK   91  A    between atoms: _225  and  _226
REMARK   92  A    between atoms: _229  and  _231
REMARK   93  A    between atoms: _231  and  _232
REMARK   94  A    between atoms: _231  and  _234
REMARK   95  A    between atoms: _237  and  _239
REMARK   96  A    between atoms: _239  and  _240
REMARK   97  A    between atoms: _239  and  _242
REMARK   98  A    between atoms: _242  and  _243
REMARK   99  A    between atoms: _253  and  _255
REMARK  100  A    between atoms: _255  and  _256
REMARK  101  A    between atoms: _258  and  _260
REMARK  102  A    between atoms: _260  and  _261
REMARK  103  A    between atoms: _260  and  _263
REMARK  104  A    between atoms: _263  and  _264
REMARK  105  A    between atoms: _269  and  _270
REMARK  106  A    between atoms: _272  and  _274
REMARK  107  A    between atoms: _274  and  _275
REMARK  108  A    between atoms: _274  and  _277
REMARK  109  A    between atoms: _277  and  _278
REMARK  110  A    between atoms: _278  and  _279
REMARK  111  A    between atoms: _279  and  _280
REMARK  112  A    between atoms: _280  and  _281
REMARK  113  A    between atoms: _285  and  _287
REMARK  114  A    between atoms: _287  and  _288
REMARK  115  A    between atoms: _287  and  _290
REMARK  116  A    between atoms: _290  and  _291
REMARK  117  A    between atoms: _294  and  _296
REMARK  118  A    between atoms: _296  and  _297
REMARK  119  A    between atoms: _296  and  _299
REMARK  120  A    between atoms: _299  and  _300
REMARK  121  A    between atoms: _303  and  _305
REMARK  122  A    between atoms: _305  and  _306
REMARK  123  A    between atoms: _305  and  _308
REMARK  124  A    between atoms: _308  and  _309
REMARK  125  A    between atoms: _309  and  _310
REMARK  126  A    between atoms: _310  and  _311
REMARK  127  A    between atoms: _311  and  _312
REMARK  128  A    between atoms: _316  and  _318
REMARK  129  A    between atoms: _318  and  _319
REMARK  130  A    between atoms: _318  and  _321
REMARK  131  A    between atoms: _321  and  _322
REMARK  132  A    between atoms: _325  and  _327
REMARK  133  A    between atoms: _327  and  _328
REMARK  134  A    between atoms: _327  and  _330
REMARK  135  A    between atoms: _330  and  _331
REMARK  136  A    between atoms: _331  and  _332
REMARK  137  A    between atoms: _337  and  _339
REMARK  138  A    between atoms: _339  and  _340
REMARK  139  A    between atoms: _339  and  _342
REMARK  140  A    between atoms: _342  and  _343
REMARK  141  A    between atoms: _346  and  _348
REMARK  142  A    between atoms: _348  and  _349
REMARK  143  A    between atoms: _348  and  _351
REMARK  144  A    between atoms: _351  and  _352
REMARK  145  A    between atoms: _357  and  _358
REMARK  146  A    between atoms: _360  and  _362
REMARK  147  A    between atoms: _362  and  _363
REMARK  148  A    between atoms: _362  and  _365
REMARK  149  A    between atoms: _365  and  _366
REMARK  150  A    between atoms: _369  and  _371
REMARK  151  A    between atoms: _371  and  _372
REMARK  152  A    between atoms: _371  and  _374
REMARK  153  A    between atoms: _376  and  _378
REMARK  154  A    between atoms: _378  and  _379
REMARK  155  A    between atoms: _382  and  _384
REMARK  156  A    between atoms: _384  and  _385
REMARK  157  A    between atoms: _384  and  _387
REMARK  158  A    between atoms: _387  and  _388
REMARK  159  A    between atoms: _388  and  _389
REMARK  160  A    between atoms: _389  and  _390
REMARK  161  A    between atoms: _390  and  _391
REMARK  162  A    between atoms: _395  and  _397
REMARK  163  A    between atoms: _397  and  _398
REMARK  164  A    between atoms: _397  and  _400
REMARK  165  A    between atoms: _400  and  _401
REMARK  166  A    between atoms: _404  and  _406
REMARK  167  A    between atoms: _406  and  _407
REMARK  168  A    between atoms: _410  and  _412
REMARK  169  A    between atoms: _412  and  _413
REMARK  170  A    between atoms: _412  and  _415
REMARK  171  A    between atoms: _415  and  _416
REMARK  172  A    between atoms: _416  and  _530
REMARK  173  A    between atoms: _417  and  _419
REMARK  174  A    between atoms: _419  and  _420
REMARK  175  A    between atoms: _419  and  _422
REMARK  176  A    between atoms: _422  and  _423
REMARK  177  A    between atoms: _423  and  _424
REMARK  178  A    between atoms: _424  and  _425
REMARK  179  A    between atoms: _425  and  _426
REMARK  180  A    between atoms: _430  and  _432
REMARK  181  A    between atoms: _432  and  _433
REMARK  182  A    between atoms: _435  and  _437
REMARK  183  A    between atoms: _437  and  _438
REMARK  184  A    between atoms: _437  and  _440
REMARK  185  A    between atoms: _440  and  _441
REMARK  186  A    between atoms: _444  and  _446
REMARK  187  A    between atoms: _446  and  _447
REMARK  188  A    between atoms: _446  and  _449
REMARK  189  A    between atoms: _449  and  _450
REMARK  190  A    between atoms: _452  and  _454
REMARK  191  A    between atoms: _454  and  _455
REMARK  192  A    between atoms: _457  and  _459
REMARK  193  A    between atoms: _459  and  _460
REMARK  194  A    between atoms: _462  and  _464
REMARK  195  A    between atoms: _464  and  _465
REMARK  196  A    between atoms: _464  and  _467
REMARK  197  A    between atoms: _467  and  _468
REMARK  198  A    between atoms: _471  and  _473
REMARK  199  A    between atoms: _473  and  _474
REMARK  200  A    between atoms: _473  and  _476
REMARK  201  A    between atoms: _476  and  _477
REMARK  202  A    between atoms: _480  and  _482
REMARK  203  A    between atoms: _482  and  _483
REMARK  204  A    between atoms: _482  and  _485
REMARK  205  A    between atoms: _485  and  _486
REMARK  206  A    between atoms: _488  and  _490
REMARK  207  A    between atoms: _490  and  _491
REMARK  208  A    between atoms: _490  and  _493
REMARK  209  A    between atoms: _493  and  _494
REMARK  210  A    between atoms: _504  and  _506
REMARK  211  A    between atoms: _506  and  _507
REMARK  212  A    between atoms: _509  and  _511
REMARK  213  A    between atoms: _511  and  _512
REMARK  214  A    between atoms: _511  and  _514
REMARK  215  A    between atoms: _514  and  _515
REMARK  216  A    between atoms: _515  and  _516
REMARK  217  A    between atoms: _519  and  _521
REMARK  218  A    between atoms: _521  and  _522
REMARK  219  A    between atoms: _524  and  _526
REMARK  220  A    between atoms: _526  and  _527
REMARK  221  A    between atoms: _526  and  _529
REMARK  222  A    between atoms: _529  and  _530
REMARK  223  A    between atoms: _531  and  _533
REMARK  224  A    between atoms: _533  and  _534
REMARK  225  A    between atoms: _537  and  _539
REMARK  226  A    between atoms: _539  and  _540
REMARK  227  A    between atoms: _539  and  _542
REMARK  228  A    between atoms: _542  and  _543
REMARK  229  A    between atoms: _543  and  _544
REMARK  230  A    between atoms: _549  and  _551
REMARK  231  A    between atoms: _551  and  _552
REMARK  232  A    between atoms: _551  and  _554
REMARK  233  A    between atoms: _554  and  _555
REMARK  234  A    between atoms: _555  and  _556
REMARK  235  A    between atoms: _556  and  _557
REMARK  236  A    between atoms: _567  and  _568
REMARK  237  A    between atoms: _573  and  _575
REMARK  238  A    between atoms: _575  and  _576
REMARK  239  A    between atoms: _578  and  _580
REMARK  240  A    between atoms: _580  and  _581
REMARK  241  A    between atoms: _580  and  _583
REMARK  242  A    between atoms: _586  and  _588
REMARK  243  A    between atoms: _588  and  _589
REMARK  244  A    between atoms: _588  and  _591
REMARK  245  A    between atoms: _591  and  _592
REMARK  246  A    between atoms: _597  and  _598
REMARK  247  A    between atoms: _600  and  _602
REMARK  248  A    between atoms: _602  and  _603
REMARK  249  A    between atoms: _602  and  _605
REMARK  250  A    between atoms: _605  and  _606
REMARK                            x       y       z     vdW  Elec       q    Type
REMARK                         _______ _______ _______ _____ _____    ______ ____
ROOT
ATOM      1  O   HOH     1       2.651  12.430 -35.556  0.00  0.00    +0.000 OA
ENDROOT
TORSDOF 0
REMARK  Name = ../refined-set-2016/4x6p/4x6p_pocket.pdb
REMARK  250 active torsions:
REMARK  status: ('A' for Active; 'I' for Inactive)
REMARK    1  A    between atoms: _1  and  _5
REMARK    2  A    between atoms: _5  and  _6
REMARK    3  A    between atoms: _5  and  _8
REMARK    4  A    between atoms: _8  and  _9
REMARK    5  A    between atoms: _12  and  _14
REMARK    6  A    between atoms: _14  and  _15
REMARK    7  A    between atoms: _14  and  _17
REMARK    8  A    between atoms: _20  and  _22
REMARK    9  A    between atoms: _22  and  _23
REMARK   10  A    between atoms: _22  and  _25
REMARK   11  A    between atoms: _25  and  _26
REMARK   12  A    between atoms: _29  and  _31
REMARK   13  A    between atoms: _31  and  _32
REMARK   14  A    between atoms: _31  and  _34
REMARK   15  A    between atoms: _34  and  _35
REMARK   16  A    between atoms: _38  and  _40
REMARK   17  A    between atoms: _40  and  _41
REMARK   18  A    between atoms: _40  and  _43
REMARK   19  A    between atoms: _43  and  _44
REMARK   20  A    between atoms: _49  and  _51
REMARK   21  A    between atoms: _51  and  _52
REMARK   22  A    between atoms: _51  and  _54
REMARK   23  A    between atoms: _54  and  _55
REMARK   24  A    between atoms: _58  and  _60
REMARK   25  A    between atoms: _60  and  _61
REMARK   26  A    between atoms: _60  and  _63
REMARK   27  A    between atoms: _63  and  _64
REMARK   28  A    between atoms: _64  and  _65
REMARK   29  A    between atoms: _70  and  _72
REMARK   30  A    between atoms: _72  and  _73
REMARK   31  A    between atoms: _72  and  _75
REMARK   32  A    between atoms: _75  and  _76
REMARK   33  A    between atoms: _76  and  _77
REMARK   34  A    between atoms: _77  and  _78
REMARK   35  A    between atoms: _87  and  _89
REMARK   36  A    between atoms: _89  and  _90
REMARK   37  A    between atoms: _89  and  _92
REMARK   38  A    between atoms: _92  and  _93
REMARK   39  A    between atoms: _98  and  _100
REMARK   40  A    between atoms: _100  and  _101
REMARK   41  A    between atoms: _100  and  _103
REMARK   42  A    between atoms: _103  and  _104
REMARK   43  A    between atoms: _107  and  _109
REMARK   44  A    between atoms: _109  and  _110
REMARK   45  A    between atoms: _109  and  _112
REMARK   46  A    between atoms: _112  and  _113
REMARK   47  A    between atoms: _113  and  _148
REMARK   48  A    between atoms: _114  and  _116
REMARK   49  A    between atoms: _116  and  _117
REMARK   50  A    between atoms: _119  and  _121
REMARK   51  A    between atoms: _121  and  _122
REMARK   52  A    between atoms: _125  and  _127
REMARK   53  A    between atoms: _127  and  _128
REMARK   54  A    between atoms: _131  and  _133
REMARK   55  A    between atoms: _133  and  _134
REMARK   56  A    between atoms: _133  and  _136
REMARK   57  A    between atoms: _136  and  _137
REMARK   58  A    between atoms: _142  and  _144
REMARK   59  A    between atoms: _144  and  _145
REMARK   60  A    between atoms: _144  and  _147
REMARK   61  A    between atoms: _147  and  _148
REMARK   62  A    between atoms: _149  and  _151
REMARK   63  A    between atoms: _151  and  _152
REMARK   64  A    between atoms: _151  and  _154
REMARK   65  A    between atoms: _154  and  _155
REMARK   66  A    between atoms: _161  and  _163
REMARK   67  A    between atoms: _163  and  _164
REMARK   68  A    between atoms: _163  and  _166
REMARK   69  A    between atoms: _166  and  _167
REMARK   70  A    between atoms: _172  and  _173
REMARK   71  A    between atoms: _175  and  _177
REMARK   72  A    between atoms: _177  and  _178
REMARK   73  A    between atoms: _180  and  _182
REMARK   74  A    between atoms: _182  and  _183
REMARK   75  A    between atoms: _182  and  _185
REMARK   76  A    between atoms: _188  and  _190
REMARK   77  A    between atoms: _190  and  _191
REMARK   78  A    between atoms: _190  and  _193
REMARK   79  A    between atoms: _193  and  _194
REMARK   80  A    between atoms: _194  and  _195
REMARK   81  A    between atoms: _200  and  _202
REMARK   82  A    between atoms: _202  and  _203
REMARK   83  A    between atoms: _202  and  _205
REMARK   84  A    between atoms: _205  and  _206
REMARK   85  A    between atoms: _211  and  _212
REMARK   86  A    between atoms: _214  and  _216
REMARK   87  A    between atoms: _216  and  _217
REMARK   88  A    between atoms: _220  and  _222
REMARK   89  A    between atoms: _222  and  _223
REMARK   90  A    between atoms: _222  and  _225
REMARK   91  A    between atoms: _225  and  _226
REMARK   92  A    between atoms: _229  and  _231
REMARK   93  A    between atoms: _231  and  _232
REMARK   94  A    between atoms: _231  and  _234
REMARK   95  A    between atoms: _237  and  _239
REMARK   96  A    between atoms: _239  and  _240
REMARK   97  A    between atoms: _239  and  _242
REMARK   98  A    between atoms: _242  and  _243
REMARK   99  A    between atoms: _253  and  _255
REMARK  100  A    between atoms: _255  and  _256
REMARK  101  A    between atoms: _258  and  _260
REMARK  102  A    between atoms: _260  and  _261
REMARK  103  A    between atoms: _260  and  _263
REMARK  104  A    between atoms: _263  and  _264
REMARK  105  A    between atoms: _269  and  _270
REMARK  106  A    between atoms: _272  and  _274
REMARK  107  A    between atoms: _274  and  _275
REMARK  108  A    between atoms: _274  and  _277
REMARK  109  A    between atoms: _277  and  _278
REMARK  110  A    between atoms: _278  and  _279
REMARK  111  A    between atoms: _279  and  _280
REMARK  112  A    between atoms: _280  and  _281
REMARK  113  A    between atoms: _285  and  _287
REMARK  114  A    between atoms: _287  and  _288
REMARK  115  A    between atoms: _287  and  _290
REMARK  116  A    between atoms: _290  and  _291
REMARK  117  A    between atoms: _294  and  _296
REMARK  118  A    between atoms: _296  and  _297
REMARK  119  A    between atoms: _296  and  _299
REMARK  120  A    between atoms: _299  and  _300
REMARK  121  A    between atoms: _303  and  _305
REMARK  122  A    between atoms: _305  and  _306
REMARK  123  A    between atoms: _305  and  _308
REMARK  124  A    between atoms: _308  and  _309
REMARK  125  A    between atoms: _309  and  _310
REMARK  126  A    between atoms: _310  and  _311
REMARK  127  A    between atoms: _311  and  _312
REMARK  128  A    between atoms: _316  and  _318
REMARK  129  A    between atoms: _318  and  _319
REMARK  130  A    between atoms: _318  and  _321
REMARK  131  A    between atoms: _321  and  _322
REMARK  132  A    between atoms: _325  and  _327
REMARK  133  A    between atoms: _327  and  _328
REMARK  134  A    between atoms: _327  and  _330
REMARK  135  A    between atoms: _330  and  _331
REMARK  136  A    between atoms: _331  and  _332
REMARK  137  A    between atoms: _337  and  _339
REMARK  138  A    between atoms: _339  and  _340
REMARK  139  A    between atoms: _339  and  _342
REMARK  140  A    between atoms: _342  and  _343
REMARK  141  A    between atoms: _346  and  _348
REMARK  142  A    between atoms: _348  and  _349
REMARK  143  A    between atoms: _348  and  _351
REMARK  144  A    between atoms: _351  and  _352
REMARK  145  A    between atoms: _357  and  _358
REMARK  146  A    between atoms: _360  and  _362
REMARK  147  A    between atoms: _362  and  _363
REMARK  148  A    between atoms: _362  and  _365
REMARK  149  A    between atoms: _365  and  _366
REMARK  150  A    between atoms: _369  and  _371
REMARK  151  A    between atoms: _371  and  _372
REMARK  152  A    between atoms: _371  and  _374
REMARK  153  A    between atoms: _376  and  _378
REMARK  154  A    between atoms: _378  and  _379
REMARK  155  A    between atoms: _382  and  _384
REMARK  156  A    between atoms: _384  and  _385
REMARK  157  A    between atoms: _384  and  _387
REMARK  158  A    between atoms: _387  and  _388
REMARK  159  A    between atoms: _388  and  _389
REMARK  160  A    between atoms: _389  and  _390
REMARK  161  A    between atoms: _390  and  _391
REMARK  162  A    between atoms: _395  and  _397
REMARK  163  A    between atoms: _397  and  _398
REMARK  164  A    between atoms: _397  and  _400
REMARK  165  A    between atoms: _400  and  _401
REMARK  166  A    between atoms: _404  and  _406
REMARK  167  A    between atoms: _406  and  _407
REMARK  168  A    between atoms: _410  and  _412
REMARK  169  A    between atoms: _412  and  _413
REMARK  170  A    between atoms: _412  and  _415
REMARK  171  A    between atoms: _415  and  _416
REMARK  172  A    between atoms: _416  and  _530
REMARK  173  A    between atoms: _417  and  _419
REMARK  174  A    between atoms: _419  and  _420
REMARK  175  A    between atoms: _419  and  _422
REMARK  176  A    between atoms: _422  and  _423
REMARK  177  A    between atoms: _423  and  _424
REMARK  178  A    between atoms: _424  and  _425
REMARK  179  A    between atoms: _425  and  _426
REMARK  180  A    between atoms: _430  and  _432
REMARK  181  A    between atoms: _432  and  _433
REMARK  182  A    between atoms: _435  and  _437
REMARK  183  A    between atoms: _437  and  _438
REMARK  184  A    between atoms: _437  and  _440
REMARK  185  A    between atoms: _440  and  _441
REMARK  186  A    between atoms: _444  and  _446
REMARK  187  A    between atoms: _446  and  _447
REMARK  188  A    between atoms: _446  and  _449
REMARK  189  A    between atoms: _449  and  _450
REMARK  190  A    between atoms: _452  and  _454
REMARK  191  A    between atoms: _454  and  _455
REMARK  192  A    between atoms: _457  and  _459
REMARK  193  A    between atoms: _459  and  _460
REMARK  194  A    between atoms: _462  and  _464
REMARK  195  A    between atoms: _464  and  _465
REMARK  196  A    between atoms: _464  and  _467
REMARK  197  A    between atoms: _467  and  _468
REMARK  198  A    between atoms: _471  and  _473
REMARK  199  A    between atoms: _473  and  _474
REMARK  200  A    between atoms: _473  and  _476
REMARK  201  A    between atoms: _476  and  _477
REMARK  202  A    between atoms: _480  and  _482
REMARK  203  A    between atoms: _482  and  _483
REMARK  204  A    between atoms: _482  and  _485
REMARK  205  A    between atoms: _485  and  _486
REMARK  206  A    between atoms: _488  and  _490
REMARK  207  A    between atoms: _490  and  _491
REMARK  208  A    between atoms: _490  and  _493
REMARK  209  A    between atoms: _493  and  _494
REMARK  210  A    between atoms: _504  and  _506
REMARK  211  A    between atoms: _506  and  _507
REMARK  212  A    between atoms: _509  and  _511
REMARK  213  A    between atoms: _511  and  _512
REMARK  214  A    between atoms: _511  and  _514
REMARK  215  A    between atoms: _514  and  _515
REMARK  216  A    between atoms: _515  and  _516
REMARK  217  A    between atoms: _519  and  _521
REMARK  218  A    between atoms: _521  and  _522
REMARK  219  A    between atoms: _524  and  _526
REMARK  220  A    between atoms: _526  and  _527
REMARK  221  A    between atoms: _526  and  _529
REMARK  222  A    between atoms: _529  and  _530
REMARK  223  A    between atoms: _531  and  _533
REMARK  224  A    between atoms: _533  and  _534
REMARK  225  A    between atoms: _537  and  _539
REMARK  226  A    between atoms: _539  and  _540
REMARK  227  A    between atoms: _539  and  _542
REMARK  228  A    between atoms: _542  and  _543
REMARK  229  A    between atoms: _543  and  _544
REMARK  230  A    between atoms: _549  and  _551
REMARK  231  A    between atoms: _551  and  _552
REMARK  232  A    between atoms: _551  and  _554
REMARK  233  A    between atoms: _554  and  _555
REMARK  234  A    between atoms: _555  and  _556
REMARK  235  A    between atoms: _556  and  _557
REMARK  236  A    between atoms: _567  and  _568
REMARK  237  A    between atoms: _573  and  _575
REMARK  238  A    between atoms: _575  and  _576
REMARK  239  A    between atoms: _578  and  _580
REMARK  240  A    between atoms: _580  and  _581
REMARK  241  A    between atoms: _580  and  _583
REMARK  242  A    between atoms: _586  and  _588
REMARK  243  A    between atoms: _588  and  _589
REMARK  244  A    between atoms: _588  and  _591
REMARK  245  A    between atoms: _591  and  _592
REMARK  246  A    between atoms: _597  and  _598
REMARK  247  A    between atoms: _600  and  _602
REMARK  248  A    between atoms: _602  and  _603
REMARK  249  A    between atoms: _602  and  _605
REMARK  250  A    between atoms: _605  and  _606
REMARK                            x       y       z     vdW  Elec       q    Type
REMARK                         _______ _______ _______ _____ _____    ______ ____
ROOT
ATOM      1  O   HOH     1       3.774  18.096 -36.832  0.00  0.00    +0.000 OA
ENDROOT
TORSDOF 0
REMARK  Name = ../refined-set-2016/4x6p/4x6p_pocket.pdb
REMARK  250 active torsions:
REMARK  status: ('A' for Active; 'I' for Inactive)
REMARK    1  A    between atoms: _1  and  _5
REMARK    2  A    between atoms: _5  and  _6
REMARK    3  A    between atoms: _5  and  _8
REMARK    4  A    between atoms: _8  and  _9
REMARK    5  A    between atoms: _12  and  _14
REMARK    6  A    between atoms: _14  and  _15
REMARK    7  A    between atoms: _14  and  _17
REMARK    8  A    between atoms: _20  and  _22
REMARK    9  A    between atoms: _22  and  _23
REMARK   10  A    between atoms: _22  and  _25
REMARK   11  A    between atoms: _25  and  _26
REMARK   12  A    between atoms: _29  and  _31
REMARK   13  A    between atoms: _31  and  _32
REMARK   14  A    between atoms: _31  and  _34
REMARK   15  A    between atoms: _34  and  _35
REMARK   16  A    between atoms: _38  and  _40
REMARK   17  A    between atoms: _40  and  _41
REMARK   18  A    between atoms: _40  and  _43
REMARK   19  A    between atoms: _43  and  _44
REMARK   20  A    between atoms: _49  and  _51
REMARK   21  A    between atoms: _51  and  _52
REMARK   22  A    between atoms: _51  and  _54
REMARK   23  A    between atoms: _54  and  _55
REMARK   24  A    between atoms: _58  and  _60
REMARK   25  A    between atoms: _60  and  _61
REMARK   26  A    between atoms: _60  and  _63
REMARK   27  A    between atoms: _63  and  _64
REMARK   28  A    between atoms: _64  and  _65
REMARK   29  A    between atoms: _70  and  _72
REMARK   30  A    between atoms: _72  and  _73
REMARK   31  A    between atoms: _72  and  _75
REMARK   32  A    between atoms: _75  and  _76
REMARK   33  A    between atoms: _76  and  _77
REMARK   34  A    between atoms: _77  and  _78
REMARK   35  A    between atoms: _87  and  _89
REMARK   36  A    between atoms: _89  and  _90
REMARK   37  A    between atoms: _89  and  _92
REMARK   38  A    between atoms: _92  and  _93
REMARK   39  A    between atoms: _98  and  _100
REMARK   40  A    between atoms: _100  and  _101
REMARK   41  A    between atoms: _100  and  _103
REMARK   42  A    between atoms: _103  and  _104
REMARK   43  A    between atoms: _107  and  _109
REMARK   44  A    between atoms: _109  and  _110
REMARK   45  A    between atoms: _109  and  _112
REMARK   46  A    between atoms: _112  and  _113
REMARK   47  A    between atoms: _113  and  _148
REMARK   48  A    between atoms: _114  and  _116
REMARK   49  A    between atoms: _116  and  _117
REMARK   50  A    between atoms: _119  and  _121
REMARK   51  A    between atoms: _121  and  _122
REMARK   52  A    between atoms: _125  and  _127
REMARK   53  A    between atoms: _127  and  _128
REMARK   54  A    between atoms: _131  and  _133
REMARK   55  A    between atoms: _133  and  _134
REMARK   56  A    between atoms: _133  and  _136
REMARK   57  A    between atoms: _136  and  _137
REMARK   58  A    between atoms: _142  and  _144
REMARK   59  A    between atoms: _144  and  _145
REMARK   60  A    between atoms: _144  and  _147
REMARK   61  A    between atoms: _147  and  _148
REMARK   62  A    between atoms: _149  and  _151
REMARK   63  A    between atoms: _151  and  _152
REMARK   64  A    between atoms: _151  and  _154
REMARK   65  A    between atoms: _154  and  _155
REMARK   66  A    between atoms: _161  and  _163
REMARK   67  A    between atoms: _163  and  _164
REMARK   68  A    between atoms: _163  and  _166
REMARK   69  A    between atoms: _166  and  _167
REMARK   70  A    between atoms: _172  and  _173
REMARK   71  A    between atoms: _175  and  _177
REMARK   72  A    between atoms: _177  and  _178
REMARK   73  A    between atoms: _180  and  _182
REMARK   74  A    between atoms: _182  and  _183
REMARK   75  A    between atoms: _182  and  _185
REMARK   76  A    between atoms: _188  and  _190
REMARK   77  A    between atoms: _190  and  _191
REMARK   78  A    between atoms: _190  and  _193
REMARK   79  A    between atoms: _193  and  _194
REMARK   80  A    between atoms: _194  and  _195
REMARK   81  A    between atoms: _200  and  _202
REMARK   82  A    between atoms: _202  and  _203
REMARK   83  A    between atoms: _202  and  _205
REMARK   84  A    between atoms: _205  and  _206
REMARK   85  A    between atoms: _211  and  _212
REMARK   86  A    between atoms: _214  and  _216
REMARK   87  A    between atoms: _216  and  _217
REMARK   88  A    between atoms: _220  and  _222
REMARK   89  A    between atoms: _222  and  _223
REMARK   90  A    between atoms: _222  and  _225
REMARK   91  A    between atoms: _225  and  _226
REMARK   92  A    between atoms: _229  and  _231
REMARK   93  A    between atoms: _231  and  _232
REMARK   94  A    between atoms: _231  and  _234
REMARK   95  A    between atoms: _237  and  _239
REMARK   96  A    between atoms: _239  and  _240
REMARK   97  A    between atoms: _239  and  _242
REMARK   98  A    between atoms: _242  and  _243
REMARK   99  A    between atoms: _253  and  _255
REMARK  100  A    between atoms: _255  and  _256
REMARK  101  A    between atoms: _258  and  _260
REMARK  102  A    between atoms: _260  and  _261
REMARK  103  A    between atoms: _260  and  _263
REMARK  104  A    between atoms: _263  and  _264
REMARK  105  A    between atoms: _269  and  _270
REMARK  106  A    between atoms: _272  and  _274
REMARK  107  A    between atoms: _274  and  _275
REMARK  108  A    between atoms: _274  and  _277
REMARK  109  A    between atoms: _277  and  _278
REMARK  110  A    between atoms: _278  and  _279
REMARK  111  A    between atoms: _279  and  _280
REMARK  112  A    between atoms: _280  and  _281
REMARK  113  A    between atoms: _285  and  _287
REMARK  114  A    between atoms: _287  and  _288
REMARK  115  A    between atoms: _287  and  _290
REMARK  116  A    between atoms: _290  and  _291
REMARK  117  A    between atoms: _294  and  _296
REMARK  118  A    between atoms: _296  and  _297
REMARK  119  A    between atoms: _296  and  _299
REMARK  120  A    between atoms: _299  and  _300
REMARK  121  A    between atoms: _303  and  _305
REMARK  122  A    between atoms: _305  and  _306
REMARK  123  A    between atoms: _305  and  _308
REMARK  124  A    between atoms: _308  and  _309
REMARK  125  A    between atoms: _309  and  _310
REMARK  126  A    between atoms: _310  and  _311
REMARK  127  A    between atoms: _311  and  _312
REMARK  128  A    between atoms: _316  and  _318
REMARK  129  A    between atoms: _318  and  _319
REMARK  130  A    between atoms: _318  and  _321
REMARK  131  A    between atoms: _321  and  _322
REMARK  132  A    between atoms: _325  and  _327
REMARK  133  A    between atoms: _327  and  _328
REMARK  134  A    between atoms: _327  and  _330
REMARK  135  A    between atoms: _330  and  _331
REMARK  136  A    between atoms: _331  and  _332
REMARK  137  A    between atoms: _337  and  _339
REMARK  138  A    between atoms: _339  and  _340
REMARK  139  A    between atoms: _339  and  _342
REMARK  140  A    between atoms: _342  and  _343
REMARK  141  A    between atoms: _346  and  _348
REMARK  142  A    between atoms: _348  and  _349
REMARK  143  A    between atoms: _348  and  _351
REMARK  144  A    between atoms: _351  and  _352
REMARK  145  A    between atoms: _357  and  _358
REMARK  146  A    between atoms: _360  and  _362
REMARK  147  A    between atoms: _362  and  _363
REMARK  148  A    between atoms: _362  and  _365
REMARK  149  A    between atoms: _365  and  _366
REMARK  150  A    between atoms: _369  and  _371
REMARK  151  A    between atoms: _371  and  _372
REMARK  152  A    between atoms: _371  and  _374
REMARK  153  A    between atoms: _376  and  _378
REMARK  154  A    between atoms: _378  and  _379
REMARK  155  A    between atoms: _382  and  _384
REMARK  156  A    between atoms: _384  and  _385
REMARK  157  A    between atoms: _384  and  _387
REMARK  158  A    between atoms: _387  and  _388
REMARK  159  A    between atoms: _388  and  _389
REMARK  160  A    between atoms: _389  and  _390
REMARK  161  A    between atoms: _390  and  _391
REMARK  162  A    between atoms: _395  and  _397
REMARK  163  A    between atoms: _397  and  _398
REMARK  164  A    between atoms: _397  and  _400
REMARK  165  A    between atoms: _400  and  _401
REMARK  166  A    between atoms: _404  and  _406
REMARK  167  A    between atoms: _406  and  _407
REMARK  168  A    between atoms: _410  and  _412
REMARK  169  A    between atoms: _412  and  _413
REMARK  170  A    between atoms: _412  and  _415
REMARK  171  A    between atoms: _415  and  _416
REMARK  172  A    between atoms: _416  and  _530
REMARK  173  A    between atoms: _417  and  _419
REMARK  174  A    between atoms: _419  and  _420
REMARK  175  A    between atoms: _419  and  _422
REMARK  176  A    between atoms: _422  and  _423
REMARK  177  A    between atoms: _423  and  _424
REMARK  178  A    between atoms: _424  and  _425
REMARK  179  A    between atoms: _425  and  _426
REMARK  180  A    between atoms: _430  and  _432
REMARK  181  A    between atoms: _432  and  _433
REMARK  182  A    between atoms: _435  and  _437
REMARK  183  A    between atoms: _437  and  _438
REMARK  184  A    between atoms: _437  and  _440
REMARK  185  A    between atoms: _440  and  _441
REMARK  186  A    between atoms: _444  and  _446
REMARK  187  A    between atoms: _446  and  _447
REMARK  188  A    between atoms: _446  and  _449
REMARK  189  A    between atoms: _449  and  _450
REMARK  190  A    between atoms: _452  and  _454
REMARK  191  A    between atoms: _454  and  _455
REMARK  192  A    between atoms: _457  and  _459
REMARK  193  A    between atoms: _459  and  _460
REMARK  194  A    between atoms: _462  and  _464
REMARK  195  A    between atoms: _464  and  _465
REMARK  196  A    between atoms: _464  and  _467
REMARK  197  A    between atoms: _467  and  _468
REMARK  198  A    between atoms: _471  and  _473
REMARK  199  A    between atoms: _473  and  _474
REMARK  200  A    between atoms: _473  and  _476
REMARK  201  A    between atoms: _476  and  _477
REMARK  202  A    between atoms: _480  and  _482
REMARK  203  A    between atoms: _482  and  _483
REMARK  204  A    between atoms: _482  and  _485
REMARK  205  A    between atoms: _485  and  _486
REMARK  206  A    between atoms: _488  and  _490
REMARK  207  A    between atoms: _490  and  _491
REMARK  208  A    between atoms: _490  and  _493
REMARK  209  A    between atoms: _493  and  _494
REMARK  210  A    between atoms: _504  and  _506
REMARK  211  A    between atoms: _506  and  _507
REMARK  212  A    between atoms: _509  and  _511
REMARK  213  A    between atoms: _511  and  _512
REMARK  214  A    between atoms: _511  and  _514
REMARK  215  A    between atoms: _514  and  _515
REMARK  216  A    between atoms: _515  and  _516
REMARK  217  A    between atoms: _519  and  _521
REMARK  218  A    between atoms: _521  and  _522
REMARK  219  A    between atoms: _524  and  _526
REMARK  220  A    between atoms: _526  and  _527
REMARK  221  A    between atoms: _526  and  _529
REMARK  222  A    between atoms: _529  and  _530
REMARK  223  A    between atoms: _531  and  _533
REMARK  224  A    between atoms: _533  and  _534
REMARK  225  A    between atoms: _537  and  _539
REMARK  226  A    between atoms: _539  and  _540
REMARK  227  A    between atoms: _539  and  _542
REMARK  228  A    between atoms: _542  and  _543
REMARK  229  A    between atoms: _543  and  _544
REMARK  230  A    between atoms: _549  and  _551
REMARK  231  A    between atoms: _551  and  _552
REMARK  232  A    between atoms: _551  and  _554
REMARK  233  A    between atoms: _554  and  _555
REMARK  234  A    between atoms: _555  and  _556
REMARK  235  A    between atoms: _556  and  _557
REMARK  236  A    between atoms: _567  and  _568
REMARK  237  A    between atoms: _573  and  _575
REMARK  238  A    between atoms: _575  and  _576
REMARK  239  A    between atoms: _578  and  _580
REMARK  240  A    between atoms: _580  and  _581
REMARK  241  A    between atoms: _580  and  _583
REMARK  242  A    between atoms: _586  and  _588
REMARK  243  A    between atoms: _588  and  _589
REMARK  244  A    between atoms: _588  and  _591
REMARK  245  A    between atoms: _591  and  _592
REMARK  246  A    between atoms: _597  and  _598
REMARK  247  A    between atoms: _600  and  _602
REMARK  248  A    between atoms: _602  and  _603
REMARK  249  A    between atoms: _602  and  _605
REMARK  250  A    between atoms: _605  and  _606
REMARK                            x       y       z     vdW  Elec       q    Type
REMARK                         _______ _______ _______ _____ _____    ______ ____
ROOT
ATOM      1  O   HOH     1       5.244  10.687 -38.025  0.00  0.00    +0.000 OA
ENDROOT
TORSDOF 0
REMARK  Name = ../refined-set-2016/4x6p/4x6p_pocket.pdb
REMARK  250 active torsions:
REMARK  status: ('A' for Active; 'I' for Inactive)
REMARK    1  A    between atoms: _1  and  _5
REMARK    2  A    between atoms: _5  and  _6
REMARK    3  A    between atoms: _5  and  _8
REMARK    4  A    between atoms: _8  and  _9
REMARK    5  A    between atoms: _12  and  _14
REMARK    6  A    between atoms: _14  and  _15
REMARK    7  A    between atoms: _14  and  _17
REMARK    8  A    between atoms: _20  and  _22
REMARK    9  A    between atoms: _22  and  _23
REMARK   10  A    between atoms: _22  and  _25
REMARK   11  A    between atoms: _25  and  _26
REMARK   12  A    between atoms: _29  and  _31
REMARK   13  A    between atoms: _31  and  _32
REMARK   14  A    between atoms: _31  and  _34
REMARK   15  A    between atoms: _34  and  _35
REMARK   16  A    between atoms: _38  and  _40
REMARK   17  A    between atoms: _40  and  _41
REMARK   18  A    between atoms: _40  and  _43
REMARK   19  A    between atoms: _43  and  _44
REMARK   20  A    between atoms: _49  and  _51
REMARK   21  A    between atoms: _51  and  _52
REMARK   22  A    between atoms: _51  and  _54
REMARK   23  A    between atoms: _54  and  _55
REMARK   24  A    between atoms: _58  and  _60
REMARK   25  A    between atoms: _60  and  _61
REMARK   26  A    between atoms: _60  and  _63
REMARK   27  A    between atoms: _63  and  _64
REMARK   28  A    between atoms: _64  and  _65
REMARK   29  A    between atoms: _70  and  _72
REMARK   30  A    between atoms: _72  and  _73
REMARK   31  A    between atoms: _72  and  _75
REMARK   32  A    between atoms: _75  and  _76
REMARK   33  A    between atoms: _76  and  _77
REMARK   34  A    between atoms: _77  and  _78
REMARK   35  A    between atoms: _87  and  _89
REMARK   36  A    between atoms: _89  and  _90
REMARK   37  A    between atoms: _89  and  _92
REMARK   38  A    between atoms: _92  and  _93
REMARK   39  A    between atoms: _98  and  _100
REMARK   40  A    between atoms: _100  and  _101
REMARK   41  A    between atoms: _100  and  _103
REMARK   42  A    between atoms: _103  and  _104
REMARK   43  A    between atoms: _107  and  _109
REMARK   44  A    between atoms: _109  and  _110
REMARK   45  A    between atoms: _109  and  _112
REMARK   46  A    between atoms: _112  and  _113
REMARK   47  A    between atoms: _113  and  _148
REMARK   48  A    between atoms: _114  and  _116
REMARK   49  A    between atoms: _116  and  _117
REMARK   50  A    between atoms: _119  and  _121
REMARK   51  A    between atoms: _121  and  _122
REMARK   52  A    between atoms: _125  and  _127
REMARK   53  A    between atoms: _127  and  _128
REMARK   54  A    between atoms: _131  and  _133
REMARK   55  A    between atoms: _133  and  _134
REMARK   56  A    between atoms: _133  and  _136
REMARK   57  A    between atoms: _136  and  _137
REMARK   58  A    between atoms: _142  and  _144
REMARK   59  A    between atoms: _144  and  _145
REMARK   60  A    between atoms: _144  and  _147
REMARK   61  A    between atoms: _147  and  _148
REMARK   62  A    between atoms: _149  and  _151
REMARK   63  A    between atoms: _151  and  _152
REMARK   64  A    between atoms: _151  and  _154
REMARK   65  A    between atoms: _154  and  _155
REMARK   66  A    between atoms: _161  and  _163
REMARK   67  A    between atoms: _163  and  _164
REMARK   68  A    between atoms: _163  and  _166
REMARK   69  A    between atoms: _166  and  _167
REMARK   70  A    between atoms: _172  and  _173
REMARK   71  A    between atoms: _175  and  _177
REMARK   72  A    between atoms: _177  and  _178
REMARK   73  A    between atoms: _180  and  _182
REMARK   74  A    between atoms: _182  and  _183
REMARK   75  A    between atoms: _182  and  _185
REMARK   76  A    between atoms: _188  and  _190
REMARK   77  A    between atoms: _190  and  _191
REMARK   78  A    between atoms: _190  and  _193
REMARK   79  A    between atoms: _193  and  _194
REMARK   80  A    between atoms: _194  and  _195
REMARK   81  A    between atoms: _200  and  _202
REMARK   82  A    between atoms: _202  and  _203
REMARK   83  A    between atoms: _202  and  _205
REMARK   84  A    between atoms: _205  and  _206
REMARK   85  A    between atoms: _211  and  _212
REMARK   86  A    between atoms: _214  and  _216
REMARK   87  A    between atoms: _216  and  _217
REMARK   88  A    between atoms: _220  and  _222
REMARK   89  A    between atoms: _222  and  _223
REMARK   90  A    between atoms: _222  and  _225
REMARK   91  A    between atoms: _225  and  _226
REMARK   92  A    between atoms: _229  and  _231
REMARK   93  A    between atoms: _231  and  _232
REMARK   94  A    between atoms: _231  and  _234
REMARK   95  A    between atoms: _237  and  _239
REMARK   96  A    between atoms: _239  and  _240
REMARK   97  A    between atoms: _239  and  _242
REMARK   98  A    between atoms: _242  and  _243
REMARK   99  A    between atoms: _253  and  _255
REMARK  100  A    between atoms: _255  and  _256
REMARK  101  A    between atoms: _258  and  _260
REMARK  102  A    between atoms: _260  and  _261
REMARK  103  A    between atoms: _260  and  _263
REMARK  104  A    between atoms: _263  and  _264
REMARK  105  A    between atoms: _269  and  _270
REMARK  106  A    between atoms: _272  and  _274
REMARK  107  A    between atoms: _274  and  _275
REMARK  108  A    between atoms: _274  and  _277
REMARK  109  A    between atoms: _277  and  _278
REMARK  110  A    between atoms: _278  and  _279
REMARK  111  A    between atoms: _279  and  _280
REMARK  112  A    between atoms: _280  and  _281
REMARK  113  A    between atoms: _285  and  _287
REMARK  114  A    between atoms: _287  and  _288
REMARK  115  A    between atoms: _287  and  _290
REMARK  116  A    between atoms: _290  and  _291
REMARK  117  A    between atoms: _294  and  _296
REMARK  118  A    between atoms: _296  and  _297
REMARK  119  A    between atoms: _296  and  _299
REMARK  120  A    between atoms: _299  and  _300
REMARK  121  A    between atoms: _303  and  _305
REMARK  122  A    between atoms: _305  and  _306
REMARK  123  A    between atoms: _305  and  _308
REMARK  124  A    between atoms: _308  and  _309
REMARK  125  A    between atoms: _309  and  _310
REMARK  126  A    between atoms: _310  and  _311
REMARK  127  A    between atoms: _311  and  _312
REMARK  128  A    between atoms: _316  and  _318
REMARK  129  A    between atoms: _318  and  _319
REMARK  130  A    between atoms: _318  and  _321
REMARK  131  A    between atoms: _321  and  _322
REMARK  132  A    between atoms: _325  and  _327
REMARK  133  A    between atoms: _327  and  _328
REMARK  134  A    between atoms: _327  and  _330
REMARK  135  A    between atoms: _330  and  _331
REMARK  136  A    between atoms: _331  and  _332
REMARK  137  A    between atoms: _337  and  _339
REMARK  138  A    between atoms: _339  and  _340
REMARK  139  A    between atoms: _339  and  _342
REMARK  140  A    between atoms: _342  and  _343
REMARK  141  A    between atoms: _346  and  _348
REMARK  142  A    between atoms: _348  and  _349
REMARK  143  A    between atoms: _348  and  _351
REMARK  144  A    between atoms: _351  and  _352
REMARK  145  A    between atoms: _357  and  _358
REMARK  146  A    between atoms: _360  and  _362
REMARK  147  A    between atoms: _362  and  _363
REMARK  148  A    between atoms: _362  and  _365
REMARK  149  A    between atoms: _365  and  _366
REMARK  150  A    between atoms: _369  and  _371
REMARK  151  A    between atoms: _371  and  _372
REMARK  152  A    between atoms: _371  and  _374
REMARK  153  A    between atoms: _376  and  _378
REMARK  154  A    between atoms: _378  and  _379
REMARK  155  A    between atoms: _382  and  _384
REMARK  156  A    between atoms: _384  and  _385
REMARK  157  A    between atoms: _384  and  _387
REMARK  158  A    between atoms: _387  and  _388
REMARK  159  A    between atoms: _388  and  _389
REMARK  160  A    between atoms: _389  and  _390
REMARK  161  A    between atoms: _390  and  _391
REMARK  162  A    between atoms: _395  and  _397
REMARK  163  A    between atoms: _397  and  _398
REMARK  164  A    between atoms: _397  and  _400
REMARK  165  A    between atoms: _400  and  _401
REMARK  166  A    between atoms: _404  and  _406
REMARK  167  A    between atoms: _406  and  _407
REMARK  168  A    between atoms: _410  and  _412
REMARK  169  A    between atoms: _412  and  _413
REMARK  170  A    between atoms: _412  and  _415
REMARK  171  A    between atoms: _415  and  _416
REMARK  172  A    between atoms: _416  and  _530
REMARK  173  A    between atoms: _417  and  _419
REMARK  174  A    between atoms: _419  and  _420
REMARK  175  A    between atoms: _419  and  _422
REMARK  176  A    between atoms: _422  and  _423
REMARK  177  A    between atoms: _423  and  _424
REMARK  178  A    between atoms: _424  and  _425
REMARK  179  A    between atoms: _425  and  _426
REMARK  180  A    between atoms: _430  and  _432
REMARK  181  A    between atoms: _432  and  _433
REMARK  182  A    between atoms: _435  and  _437
REMARK  183  A    between atoms: _437  and  _438
REMARK  184  A    between atoms: _437  and  _440
REMARK  185  A    between atoms: _440  and  _441
REMARK  186  A    between atoms: _444  and  _446
REMARK  187  A    between atoms: _446  and  _447
REMARK  188  A    between atoms: _446  and  _449
REMARK  189  A    between atoms: _449  and  _450
REMARK  190  A    between atoms: _452  and  _454
REMARK  191  A    between atoms: _454  and  _455
REMARK  192  A    between atoms: _457  and  _459
REMARK  193  A    between atoms: _459  and  _460
REMARK  194  A    between atoms: _462  and  _464
REMARK  195  A    between atoms: _464  and  _465
REMARK  196  A    between atoms: _464  and  _467
REMARK  197  A    between atoms: _467  and  _468
REMARK  198  A    between atoms: _471  and  _473
REMARK  199  A    between atoms: _473  and  _474
REMARK  200  A    between atoms: _473  and  _476
REMARK  201  A    between atoms: _476  and  _477
REMARK  202  A    between atoms: _480  and  _482
REMARK  203  A    between atoms: _482  and  _483
REMARK  204  A    between atoms: _482  and  _485
REMARK  205  A    between atoms: _485  and  _486
REMARK  206  A    between atoms: _488  and  _490
REMARK  207  A    between atoms: _490  and  _491
REMARK  208  A    between atoms: _490  and  _493
REMARK  209  A    between atoms: _493  and  _494
REMARK  210  A    between atoms: _504  and  _506
REMARK  211  A    between atoms: _506  and  _507
REMARK  212  A    between atoms: _509  and  _511
REMARK  213  A    between atoms: _511  and  _512
REMARK  214  A    between atoms: _511  and  _514
REMARK  215  A    between atoms: _514  and  _515
REMARK  216  A    between atoms: _515  and  _516
REMARK  217  A    between atoms: _519  and  _521
REMARK  218  A    between atoms: _521  and  _522
REMARK  219  A    between atoms: _524  and  _526
REMARK  220  A    between atoms: _526  and  _527
REMARK  221  A    between atoms: _526  and  _529
REMARK  222  A    between atoms: _529  and  _530
REMARK  223  A    between atoms: _531  and  _533
REMARK  224  A    between atoms: _533  and  _534
REMARK  225  A    between atoms: _537  and  _539
REMARK  226  A    between atoms: _539  and  _540
REMARK  227  A    between atoms: _539  and  _542
REMARK  228  A    between atoms: _542  and  _543
REMARK  229  A    between atoms: _543  and  _544
REMARK  230  A    between atoms: _549  and  _551
REMARK  231  A    between atoms: _551  and  _552
REMARK  232  A    between atoms: _551  and  _554
REMARK  233  A    between atoms: _554  and  _555
REMARK  234  A    between atoms: _555  and  _556
REMARK  235  A    between atoms: _556  and  _557
REMARK  236  A    between atoms: _567  and  _568
REMARK  237  A    between atoms: _573  and  _575
REMARK  238  A    between atoms: _575  and  _576
REMARK  239  A    between atoms: _578  and  _580
REMARK  240  A    between atoms: _580  and  _581
REMARK  241  A    between atoms: _580  and  _583
REMARK  242  A    between atoms: _586  and  _588
REMARK  243  A    between atoms: _588  and  _589
REMARK  244  A    between atoms: _588  and  _591
REMARK  245  A    between atoms: _591  and  _592
REMARK  246  A    between atoms: _597  and  _598
REMARK  247  A    between atoms: _600  and  _602
REMARK  248  A    between atoms: _602  and  _603
REMARK  249  A    between atoms: _602  and  _605
REMARK  250  A    between atoms: _605  and  _606
REMARK                            x       y       z     vdW  Elec       q    Type
REMARK                         _______ _______ _______ _____ _____    ______ ____
ROOT
ATOM      1  O   HOH     1      10.756  26.264 -41.476  0.00  0.00    +0.000 OA
ENDROOT
TORSDOF 0
REMARK  Name = ../refined-set-2016/4x6p/4x6p_pocket.pdb
REMARK  250 active torsions:
REMARK  status: ('A' for Active; 'I' for Inactive)
REMARK    1  A    between atoms: _1  and  _5
REMARK    2  A    between atoms: _5  and  _6
REMARK    3  A    between atoms: _5  and  _8
REMARK    4  A    between atoms: _8  and  _9
REMARK    5  A    between atoms: _12  and  _14
REMARK    6  A    between atoms: _14  and  _15
REMARK    7  A    between atoms: _14  and  _17
REMARK    8  A    between atoms: _20  and  _22
REMARK    9  A    between atoms: _22  and  _23
REMARK   10  A    between atoms: _22  and  _25
REMARK   11  A    between atoms: _25  and  _26
REMARK   12  A    between atoms: _29  and  _31
REMARK   13  A    between atoms: _31  and  _32
REMARK   14  A    between atoms: _31  and  _34
REMARK   15  A    between atoms: _34  and  _35
REMARK   16  A    between atoms: _38  and  _40
REMARK   17  A    between atoms: _40  and  _41
REMARK   18  A    between atoms: _40  and  _43
REMARK   19  A    between atoms: _43  and  _44
REMARK   20  A    between atoms: _49  and  _51
REMARK   21  A    between atoms: _51  and  _52
REMARK   22  A    between atoms: _51  and  _54
REMARK   23  A    between atoms: _54  and  _55
REMARK   24  A    between atoms: _58  and  _60
REMARK   25  A    between atoms: _60  and  _61
REMARK   26  A    between atoms: _60  and  _63
REMARK   27  A    between atoms: _63  and  _64
REMARK   28  A    between atoms: _64  and  _65
REMARK   29  A    between atoms: _70  and  _72
REMARK   30  A    between atoms: _72  and  _73
REMARK   31  A    between atoms: _72  and  _75
REMARK   32  A    between atoms: _75  and  _76
REMARK   33  A    between atoms: _76  and  _77
REMARK   34  A    between atoms: _77  and  _78
REMARK   35  A    between atoms: _87  and  _89
REMARK   36  A    between atoms: _89  and  _90
REMARK   37  A    between atoms: _89  and  _92
REMARK   38  A    between atoms: _92  and  _93
REMARK   39  A    between atoms: _98  and  _100
REMARK   40  A    between atoms: _100  and  _101
REMARK   41  A    between atoms: _100  and  _103
REMARK   42  A    between atoms: _103  and  _104
REMARK   43  A    between atoms: _107  and  _109
REMARK   44  A    between atoms: _109  and  _110
REMARK   45  A    between atoms: _109  and  _112
REMARK   46  A    between atoms: _112  and  _113
REMARK   47  A    between atoms: _113  and  _148
REMARK   48  A    between atoms: _114  and  _116
REMARK   49  A    between atoms: _116  and  _117
REMARK   50  A    between atoms: _119  and  _121
REMARK   51  A    between atoms: _121  and  _122
REMARK   52  A    between atoms: _125  and  _127
REMARK   53  A    between atoms: _127  and  _128
REMARK   54  A    between atoms: _131  and  _133
REMARK   55  A    between atoms: _133  and  _134
REMARK   56  A    between atoms: _133  and  _136
REMARK   57  A    between atoms: _136  and  _137
REMARK   58  A    between atoms: _142  and  _144
REMARK   59  A    between atoms: _144  and  _145
REMARK   60  A    between atoms: _144  and  _147
REMARK   61  A    between atoms: _147  and  _148
REMARK   62  A    between atoms: _149  and  _151
REMARK   63  A    between atoms: _151  and  _152
REMARK   64  A    between atoms: _151  and  _154
REMARK   65  A    between atoms: _154  and  _155
REMARK   66  A    between atoms: _161  and  _163
REMARK   67  A    between atoms: _163  and  _164
REMARK   68  A    between atoms: _163  and  _166
REMARK   69  A    between atoms: _166  and  _167
REMARK   70  A    between atoms: _172  and  _173
REMARK   71  A    between atoms: _175  and  _177
REMARK   72  A    between atoms: _177  and  _178
REMARK   73  A    between atoms: _180  and  _182
REMARK   74  A    between atoms: _182  and  _183
REMARK   75  A    between atoms: _182  and  _185
REMARK   76  A    between atoms: _188  and  _190
REMARK   77  A    between atoms: _190  and  _191
REMARK   78  A    between atoms: _190  and  _193
REMARK   79  A    between atoms: _193  and  _194
REMARK   80  A    between atoms: _194  and  _195
REMARK   81  A    between atoms: _200  and  _202
REMARK   82  A    between atoms: _202  and  _203
REMARK   83  A    between atoms: _202  and  _205
REMARK   84  A    between atoms: _205  and  _206
REMARK   85  A    between atoms: _211  and  _212
REMARK   86  A    between atoms: _214  and  _216
REMARK   87  A    between atoms: _216  and  _217
REMARK   88  A    between atoms: _220  and  _222
REMARK   89  A    between atoms: _222  and  _223
REMARK   90  A    between atoms: _222  and  _225
REMARK   91  A    between atoms: _225  and  _226
REMARK   92  A    between atoms: _229  and  _231
REMARK   93  A    between atoms: _231  and  _232
REMARK   94  A    between atoms: _231  and  _234
REMARK   95  A    between atoms: _237  and  _239
REMARK   96  A    between atoms: _239  and  _240
REMARK   97  A    between atoms: _239  and  _242
REMARK   98  A    between atoms: _242  and  _243
REMARK   99  A    between atoms: _253  and  _255
REMARK  100  A    between atoms: _255  and  _256
REMARK  101  A    between atoms: _258  and  _260
REMARK  102  A    between atoms: _260  and  _261
REMARK  103  A    between atoms: _260  and  _263
REMARK  104  A    between atoms: _263  and  _264
REMARK  105  A    between atoms: _269  and  _270
REMARK  106  A    between atoms: _272  and  _274
REMARK  107  A    between atoms: _274  and  _275
REMARK  108  A    between atoms: _274  and  _277
REMARK  109  A    between atoms: _277  and  _278
REMARK  110  A    between atoms: _278  and  _279
REMARK  111  A    between atoms: _279  and  _280
REMARK  112  A    between atoms: _280  and  _281
REMARK  113  A    between atoms: _285  and  _287
REMARK  114  A    between atoms: _287  and  _288
REMARK  115  A    between atoms: _287  and  _290
REMARK  116  A    between atoms: _290  and  _291
REMARK  117  A    between atoms: _294  and  _296
REMARK  118  A    between atoms: _296  and  _297
REMARK  119  A    between atoms: _296  and  _299
REMARK  120  A    between atoms: _299  and  _300
REMARK  121  A    between atoms: _303  and  _305
REMARK  122  A    between atoms: _305  and  _306
REMARK  123  A    between atoms: _305  and  _308
REMARK  124  A    between atoms: _308  and  _309
REMARK  125  A    between atoms: _309  and  _310
REMARK  126  A    between atoms: _310  and  _311
REMARK  127  A    between atoms: _311  and  _312
REMARK  128  A    between atoms: _316  and  _318
REMARK  129  A    between atoms: _318  and  _319
REMARK  130  A    between atoms: _318  and  _321
REMARK  131  A    between atoms: _321  and  _322
REMARK  132  A    between atoms: _325  and  _327
REMARK  133  A    between atoms: _327  and  _328
REMARK  134  A    between atoms: _327  and  _330
REMARK  135  A    between atoms: _330  and  _331
REMARK  136  A    between atoms: _331  and  _332
REMARK  137  A    between atoms: _337  and  _339
REMARK  138  A    between atoms: _339  and  _340
REMARK  139  A    between atoms: _339  and  _342
REMARK  140  A    between atoms: _342  and  _343
REMARK  141  A    between atoms: _346  and  _348
REMARK  142  A    between atoms: _348  and  _349
REMARK  143  A    between atoms: _348  and  _351
REMARK  144  A    between atoms: _351  and  _352
REMARK  145  A    between atoms: _357  and  _358
REMARK  146  A    between atoms: _360  and  _362
REMARK  147  A    between atoms: _362  and  _363
REMARK  148  A    between atoms: _362  and  _365
REMARK  149  A    between atoms: _365  and  _366
REMARK  150  A    between atoms: _369  and  _371
REMARK  151  A    between atoms: _371  and  _372
REMARK  152  A    between atoms: _371  and  _374
REMARK  153  A    between atoms: _376  and  _378
REMARK  154  A    between atoms: _378  and  _379
REMARK  155  A    between atoms: _382  and  _384
REMARK  156  A    between atoms: _384  and  _385
REMARK  157  A    between atoms: _384  and  _387
REMARK  158  A    between atoms: _387  and  _388
REMARK  159  A    between atoms: _388  and  _389
REMARK  160  A    between atoms: _389  and  _390
REMARK  161  A    between atoms: _390  and  _391
REMARK  162  A    between atoms: _395  and  _397
REMARK  163  A    between atoms: _397  and  _398
REMARK  164  A    between atoms: _397  and  _400
REMARK  165  A    between atoms: _400  and  _401
REMARK  166  A    between atoms: _404  and  _406
REMARK  167  A    between atoms: _406  and  _407
REMARK  168  A    between atoms: _410  and  _412
REMARK  169  A    between atoms: _412  and  _413
REMARK  170  A    between atoms: _412  and  _415
REMARK  171  A    between atoms: _415  and  _416
REMARK  172  A    between atoms: _416  and  _530
REMARK  173  A    between atoms: _417  and  _419
REMARK  174  A    between atoms: _419  and  _420
REMARK  175  A    between atoms: _419  and  _422
REMARK  176  A    between atoms: _422  and  _423
REMARK  177  A    between atoms: _423  and  _424
REMARK  178  A    between atoms: _424  and  _425
REMARK  179  A    between atoms: _425  and  _426
REMARK  180  A    between atoms: _430  and  _432
REMARK  181  A    between atoms: _432  and  _433
REMARK  182  A    between atoms: _435  and  _437
REMARK  183  A    between atoms: _437  and  _438
REMARK  184  A    between atoms: _437  and  _440
REMARK  185  A    between atoms: _440  and  _441
REMARK  186  A    between atoms: _444  and  _446
REMARK  187  A    between atoms: _446  and  _447
REMARK  188  A    between atoms: _446  and  _449
REMARK  189  A    between atoms: _449  and  _450
REMARK  190  A    between atoms: _452  and  _454
REMARK  191  A    between atoms: _454  and  _455
REMARK  192  A    between atoms: _457  and  _459
REMARK  193  A    between atoms: _459  and  _460
REMARK  194  A    between atoms: _462  and  _464
REMARK  195  A    between atoms: _464  and  _465
REMARK  196  A    between atoms: _464  and  _467
REMARK  197  A    between atoms: _467  and  _468
REMARK  198  A    between atoms: _471  and  _473
REMARK  199  A    between atoms: _473  and  _474
REMARK  200  A    between atoms: _473  and  _476
REMARK  201  A    between atoms: _476  and  _477
REMARK  202  A    between atoms: _480  and  _482
REMARK  203  A    between atoms: _482  and  _483
REMARK  204  A    between atoms: _482  and  _485
REMARK  205  A    between atoms: _485  and  _486
REMARK  206  A    between atoms: _488  and  _490
REMARK  207  A    between atoms: _490  and  _491
REMARK  208  A    between atoms: _490  and  _493
REMARK  209  A    between atoms: _493  and  _494
REMARK  210  A    between atoms: _504  and  _506
REMARK  211  A    between atoms: _506  and  _507
REMARK  212  A    between atoms: _509  and  _511
REMARK  213  A    between atoms: _511  and  _512
REMARK  214  A    between atoms: _511  and  _514
REMARK  215  A    between atoms: _514  and  _515
REMARK  216  A    between atoms: _515  and  _516
REMARK  217  A    between atoms: _519  and  _521
REMARK  218  A    between atoms: _521  and  _522
REMARK  219  A    between atoms: _524  and  _526
REMARK  220  A    between atoms: _526  and  _527
REMARK  221  A    between atoms: _526  and  _529
REMARK  222  A    between atoms: _529  and  _530
REMARK  223  A    between atoms: _531  and  _533
REMARK  224  A    between atoms: _533  and  _534
REMARK  225  A    between atoms: _537  and  _539
REMARK  226  A    between atoms: _539  and  _540
REMARK  227  A    between atoms: _539  and  _542
REMARK  228  A    between atoms: _542  and  _543
REMARK  229  A    between atoms: _543  and  _544
REMARK  230  A    between atoms: _549  and  _551
REMARK  231  A    between atoms: _551  and  _552
REMARK  232  A    between atoms: _551  and  _554
REMARK  233  A    between atoms: _554  and  _555
REMARK  234  A    between atoms: _555  and  _556
REMARK  235  A    between atoms: _556  and  _557
REMARK  236  A    between atoms: _567  and  _568
REMARK  237  A    between atoms: _573  and  _575
REMARK  238  A    between atoms: _575  and  _576
REMARK  239  A    between atoms: _578  and  _580
REMARK  240  A    between atoms: _580  and  _581
REMARK  241  A    between atoms: _580  and  _583
REMARK  242  A    between atoms: _586  and  _588
REMARK  243  A    between atoms: _588  and  _589
REMARK  244  A    between atoms: _588  and  _591
REMARK  245  A    between atoms: _591  and  _592
REMARK  246  A    between atoms: _597  and  _598
REMARK  247  A    between atoms: _600  and  _602
REMARK  248  A    between atoms: _602  and  _603
REMARK  249  A    between atoms: _602  and  _605
REMARK  250  A    between atoms: _605  and  _606
REMARK                            x       y       z     vdW  Elec       q    Type
REMARK                         _______ _______ _______ _____ _____    ______ ____
ROOT
ATOM      1  O   HOH     1       2.537  20.834 -36.827  0.00  0.00    +0.000 OA
ENDROOT
TORSDOF 0
REMARK  Name = ../refined-set-2016/4x6p/4x6p_pocket.pdb
REMARK  250 active torsions:
REMARK  status: ('A' for Active; 'I' for Inactive)
REMARK    1  A    between atoms: _1  and  _5
REMARK    2  A    between atoms: _5  and  _6
REMARK    3  A    between atoms: _5  and  _8
REMARK    4  A    between atoms: _8  and  _9
REMARK    5  A    between atoms: _12  and  _14
REMARK    6  A    between atoms: _14  and  _15
REMARK    7  A    between atoms: _14  and  _17
REMARK    8  A    between atoms: _20  and  _22
REMARK    9  A    between atoms: _22  and  _23
REMARK   10  A    between atoms: _22  and  _25
REMARK   11  A    between atoms: _25  and  _26
REMARK   12  A    between atoms: _29  and  _31
REMARK   13  A    between atoms: _31  and  _32
REMARK   14  A    between atoms: _31  and  _34
REMARK   15  A    between atoms: _34  and  _35
REMARK   16  A    between atoms: _38  and  _40
REMARK   17  A    between atoms: _40  and  _41
REMARK   18  A    between atoms: _40  and  _43
REMARK   19  A    between atoms: _43  and  _44
REMARK   20  A    between atoms: _49  and  _51
REMARK   21  A    between atoms: _51  and  _52
REMARK   22  A    between atoms: _51  and  _54
REMARK   23  A    between atoms: _54  and  _55
REMARK   24  A    between atoms: _58  and  _60
REMARK   25  A    between atoms: _60  and  _61
REMARK   26  A    between atoms: _60  and  _63
REMARK   27  A    between atoms: _63  and  _64
REMARK   28  A    between atoms: _64  and  _65
REMARK   29  A    between atoms: _70  and  _72
REMARK   30  A    between atoms: _72  and  _73
REMARK   31  A    between atoms: _72  and  _75
REMARK   32  A    between atoms: _75  and  _76
REMARK   33  A    between atoms: _76  and  _77
REMARK   34  A    between atoms: _77  and  _78
REMARK   35  A    between atoms: _87  and  _89
REMARK   36  A    between atoms: _89  and  _90
REMARK   37  A    between atoms: _89  and  _92
REMARK   38  A    between atoms: _92  and  _93
REMARK   39  A    between atoms: _98  and  _100
REMARK   40  A    between atoms: _100  and  _101
REMARK   41  A    between atoms: _100  and  _103
REMARK   42  A    between atoms: _103  and  _104
REMARK   43  A    between atoms: _107  and  _109
REMARK   44  A    between atoms: _109  and  _110
REMARK   45  A    between atoms: _109  and  _112
REMARK   46  A    between atoms: _112  and  _113
REMARK   47  A    between atoms: _113  and  _148
REMARK   48  A    between atoms: _114  and  _116
REMARK   49  A    between atoms: _116  and  _117
REMARK   50  A    between atoms: _119  and  _121
REMARK   51  A    between atoms: _121  and  _122
REMARK   52  A    between atoms: _125  and  _127
REMARK   53  A    between atoms: _127  and  _128
REMARK   54  A    between atoms: _131  and  _133
REMARK   55  A    between atoms: _133  and  _134
REMARK   56  A    between atoms: _133  and  _136
REMARK   57  A    between atoms: _136  and  _137
REMARK   58  A    between atoms: _142  and  _144
REMARK   59  A    between atoms: _144  and  _145
REMARK   60  A    between atoms: _144  and  _147
REMARK   61  A    between atoms: _147  and  _148
REMARK   62  A    between atoms: _149  and  _151
REMARK   63  A    between atoms: _151  and  _152
REMARK   64  A    between atoms: _151  and  _154
REMARK   65  A    between atoms: _154  and  _155
REMARK   66  A    between atoms: _161  and  _163
REMARK   67  A    between atoms: _163  and  _164
REMARK   68  A    between atoms: _163  and  _166
REMARK   69  A    between atoms: _166  and  _167
REMARK   70  A    between atoms: _172  and  _173
REMARK   71  A    between atoms: _175  and  _177
REMARK   72  A    between atoms: _177  and  _178
REMARK   73  A    between atoms: _180  and  _182
REMARK   74  A    between atoms: _182  and  _183
REMARK   75  A    between atoms: _182  and  _185
REMARK   76  A    between atoms: _188  and  _190
REMARK   77  A    between atoms: _190  and  _191
REMARK   78  A    between atoms: _190  and  _193
REMARK   79  A    between atoms: _193  and  _194
REMARK   80  A    between atoms: _194  and  _195
REMARK   81  A    between atoms: _200  and  _202
REMARK   82  A    between atoms: _202  and  _203
REMARK   83  A    between atoms: _202  and  _205
REMARK   84  A    between atoms: _205  and  _206
REMARK   85  A    between atoms: _211  and  _212
REMARK   86  A    between atoms: _214  and  _216
REMARK   87  A    between atoms: _216  and  _217
REMARK   88  A    between atoms: _220  and  _222
REMARK   89  A    between atoms: _222  and  _223
REMARK   90  A    between atoms: _222  and  _225
REMARK   91  A    between atoms: _225  and  _226
REMARK   92  A    between atoms: _229  and  _231
REMARK   93  A    between atoms: _231  and  _232
REMARK   94  A    between atoms: _231  and  _234
REMARK   95  A    between atoms: _237  and  _239
REMARK   96  A    between atoms: _239  and  _240
REMARK   97  A    between atoms: _239  and  _242
REMARK   98  A    between atoms: _242  and  _243
REMARK   99  A    between atoms: _253  and  _255
REMARK  100  A    between atoms: _255  and  _256
REMARK  101  A    between atoms: _258  and  _260
REMARK  102  A    between atoms: _260  and  _261
REMARK  103  A    between atoms: _260  and  _263
REMARK  104  A    between atoms: _263  and  _264
REMARK  105  A    between atoms: _269  and  _270
REMARK  106  A    between atoms: _272  and  _274
REMARK  107  A    between atoms: _274  and  _275
REMARK  108  A    between atoms: _274  and  _277
REMARK  109  A    between atoms: _277  and  _278
REMARK  110  A    between atoms: _278  and  _279
REMARK  111  A    between atoms: _279  and  _280
REMARK  112  A    between atoms: _280  and  _281
REMARK  113  A    between atoms: _285  and  _287
REMARK  114  A    between atoms: _287  and  _288
REMARK  115  A    between atoms: _287  and  _290
REMARK  116  A    between atoms: _290  and  _291
REMARK  117  A    between atoms: _294  and  _296
REMARK  118  A    between atoms: _296  and  _297
REMARK  119  A    between atoms: _296  and  _299
REMARK  120  A    between atoms: _299  and  _300
REMARK  121  A    between atoms: _303  and  _305
REMARK  122  A    between atoms: _305  and  _306
REMARK  123  A    between atoms: _305  and  _308
REMARK  124  A    between atoms: _308  and  _309
REMARK  125  A    between atoms: _309  and  _310
REMARK  126  A    between atoms: _310  and  _311
REMARK  127  A    between atoms: _311  and  _312
REMARK  128  A    between atoms: _316  and  _318
REMARK  129  A    between atoms: _318  and  _319
REMARK  130  A    between atoms: _318  and  _321
REMARK  131  A    between atoms: _321  and  _322
REMARK  132  A    between atoms: _325  and  _327
REMARK  133  A    between atoms: _327  and  _328
REMARK  134  A    between atoms: _327  and  _330
REMARK  135  A    between atoms: _330  and  _331
REMARK  136  A    between atoms: _331  and  _332
REMARK  137  A    between atoms: _337  and  _339
REMARK  138  A    between atoms: _339  and  _340
REMARK  139  A    between atoms: _339  and  _342
REMARK  140  A    between atoms: _342  and  _343
REMARK  141  A    between atoms: _346  and  _348
REMARK  142  A    between atoms: _348  and  _349
REMARK  143  A    between atoms: _348  and  _351
REMARK  144  A    between atoms: _351  and  _352
REMARK  145  A    between atoms: _357  and  _358
REMARK  146  A    between atoms: _360  and  _362
REMARK  147  A    between atoms: _362  and  _363
REMARK  148  A    between atoms: _362  and  _365
REMARK  149  A    between atoms: _365  and  _366
REMARK  150  A    between atoms: _369  and  _371
REMARK  151  A    between atoms: _371  and  _372
REMARK  152  A    between atoms: _371  and  _374
REMARK  153  A    between atoms: _376  and  _378
REMARK  154  A    between atoms: _378  and  _379
REMARK  155  A    between atoms: _382  and  _384
REMARK  156  A    between atoms: _384  and  _385
REMARK  157  A    between atoms: _384  and  _387
REMARK  158  A    between atoms: _387  and  _388
REMARK  159  A    between atoms: _388  and  _389
REMARK  160  A    between atoms: _389  and  _390
REMARK  161  A    between atoms: _390  and  _391
REMARK  162  A    between atoms: _395  and  _397
REMARK  163  A    between atoms: _397  and  _398
REMARK  164  A    between atoms: _397  and  _400
REMARK  165  A    between atoms: _400  and  _401
REMARK  166  A    between atoms: _404  and  _406
REMARK  167  A    between atoms: _406  and  _407
REMARK  168  A    between atoms: _410  and  _412
REMARK  169  A    between atoms: _412  and  _413
REMARK  170  A    between atoms: _412  and  _415
REMARK  171  A    between atoms: _415  and  _416
REMARK  172  A    between atoms: _416  and  _530
REMARK  173  A    between atoms: _417  and  _419
REMARK  174  A    between atoms: _419  and  _420
REMARK  175  A    between atoms: _419  and  _422
REMARK  176  A    between atoms: _422  and  _423
REMARK  177  A    between atoms: _423  and  _424
REMARK  178  A    between atoms: _424  and  _425
REMARK  179  A    between atoms: _425  and  _426
REMARK  180  A    between atoms: _430  and  _432
REMARK  181  A    between atoms: _432  and  _433
REMARK  182  A    between atoms: _435  and  _437
REMARK  183  A    between atoms: _437  and  _438
REMARK  184  A    between atoms: _437  and  _440
REMARK  185  A    between atoms: _440  and  _441
REMARK  186  A    between atoms: _444  and  _446
REMARK  187  A    between atoms: _446  and  _447
REMARK  188  A    between atoms: _446  and  _449
REMARK  189  A    between atoms: _449  and  _450
REMARK  190  A    between atoms: _452  and  _454
REMARK  191  A    between atoms: _454  and  _455
REMARK  192  A    between atoms: _457  and  _459
REMARK  193  A    between atoms: _459  and  _460
REMARK  194  A    between atoms: _462  and  _464
REMARK  195  A    between atoms: _464  and  _465
REMARK  196  A    between atoms: _464  and  _467
REMARK  197  A    between atoms: _467  and  _468
REMARK  198  A    between atoms: _471  and  _473
REMARK  199  A    between atoms: _473  and  _474
REMARK  200  A    between atoms: _473  and  _476
REMARK  201  A    between atoms: _476  and  _477
REMARK  202  A    between atoms: _480  and  _482
REMARK  203  A    between atoms: _482  and  _483
REMARK  204  A    between atoms: _482  and  _485
REMARK  205  A    between atoms: _485  and  _486
REMARK  206  A    between atoms: _488  and  _490
REMARK  207  A    between atoms: _490  and  _491
REMARK  208  A    between atoms: _490  and  _493
REMARK  209  A    between atoms: _493  and  _494
REMARK  210  A    between atoms: _504  and  _506
REMARK  211  A    between atoms: _506  and  _507
REMARK  212  A    between atoms: _509  and  _511
REMARK  213  A    between atoms: _511  and  _512
REMARK  214  A    between atoms: _511  and  _514
REMARK  215  A    between atoms: _514  and  _515
REMARK  216  A    between atoms: _515  and  _516
REMARK  217  A    between atoms: _519  and  _521
REMARK  218  A    between atoms: _521  and  _522
REMARK  219  A    between atoms: _524  and  _526
REMARK  220  A    between atoms: _526  and  _527
REMARK  221  A    between atoms: _526  and  _529
REMARK  222  A    between atoms: _529  and  _530
REMARK  223  A    between atoms: _531  and  _533
REMARK  224  A    between atoms: _533  and  _534
REMARK  225  A    between atoms: _537  and  _539
REMARK  226  A    between atoms: _539  and  _540
REMARK  227  A    between atoms: _539  and  _542
REMARK  228  A    between atoms: _542  and  _543
REMARK  229  A    between atoms: _543  and  _544
REMARK  230  A    between atoms: _549  and  _551
REMARK  231  A    between atoms: _551  and  _552
REMARK  232  A    between atoms: _551  and  _554
REMARK  233  A    between atoms: _554  and  _555
REMARK  234  A    between atoms: _555  and  _556
REMARK  235  A    between atoms: _556  and  _557
REMARK  236  A    between atoms: _567  and  _568
REMARK  237  A    between atoms: _573  and  _575
REMARK  238  A    between atoms: _575  and  _576
REMARK  239  A    between atoms: _578  and  _580
REMARK  240  A    between atoms: _580  and  _581
REMARK  241  A    between atoms: _580  and  _583
REMARK  242  A    between atoms: _586  and  _588
REMARK  243  A    between atoms: _588  and  _589
REMARK  244  A    between atoms: _588  and  _591
REMARK  245  A    between atoms: _591  and  _592
REMARK  246  A    between atoms: _597  and  _598
REMARK  247  A    between atoms: _600  and  _602
REMARK  248  A    between atoms: _602  and  _603
REMARK  249  A    between atoms: _602  and  _605
REMARK  250  A    between atoms: _605  and  _606
REMARK                            x       y       z     vdW  Elec       q    Type
REMARK                         _______ _______ _______ _____ _____    ______ ____
ROOT
ATOM      1  O   HOH     1       3.070  23.473 -37.568  0.00  0.00    +0.000 OA
ENDROOT
TORSDOF 0
REMARK  Name = ../refined-set-2016/4x6p/4x6p_pocket.pdb
REMARK  250 active torsions:
REMARK  status: ('A' for Active; 'I' for Inactive)
REMARK    1  A    between atoms: _1  and  _5
REMARK    2  A    between atoms: _5  and  _6
REMARK    3  A    between atoms: _5  and  _8
REMARK    4  A    between atoms: _8  and  _9
REMARK    5  A    between atoms: _12  and  _14
REMARK    6  A    between atoms: _14  and  _15
REMARK    7  A    between atoms: _14  and  _17
REMARK    8  A    between atoms: _20  and  _22
REMARK    9  A    between atoms: _22  and  _23
REMARK   10  A    between atoms: _22  and  _25
REMARK   11  A    between atoms: _25  and  _26
REMARK   12  A    between atoms: _29  and  _31
REMARK   13  A    between atoms: _31  and  _32
REMARK   14  A    between atoms: _31  and  _34
REMARK   15  A    between atoms: _34  and  _35
REMARK   16  A    between atoms: _38  and  _40
REMARK   17  A    between atoms: _40  and  _41
REMARK   18  A    between atoms: _40  and  _43
REMARK   19  A    between atoms: _43  and  _44
REMARK   20  A    between atoms: _49  and  _51
REMARK   21  A    between atoms: _51  and  _52
REMARK   22  A    between atoms: _51  and  _54
REMARK   23  A    between atoms: _54  and  _55
REMARK   24  A    between atoms: _58  and  _60
REMARK   25  A    between atoms: _60  and  _61
REMARK   26  A    between atoms: _60  and  _63
REMARK   27  A    between atoms: _63  and  _64
REMARK   28  A    between atoms: _64  and  _65
REMARK   29  A    between atoms: _70  and  _72
REMARK   30  A    between atoms: _72  and  _73
REMARK   31  A    between atoms: _72  and  _75
REMARK   32  A    between atoms: _75  and  _76
REMARK   33  A    between atoms: _76  and  _77
REMARK   34  A    between atoms: _77  and  _78
REMARK   35  A    between atoms: _87  and  _89
REMARK   36  A    between atoms: _89  and  _90
REMARK   37  A    between atoms: _89  and  _92
REMARK   38  A    between atoms: _92  and  _93
REMARK   39  A    between atoms: _98  and  _100
REMARK   40  A    between atoms: _100  and  _101
REMARK   41  A    between atoms: _100  and  _103
REMARK   42  A    between atoms: _103  and  _104
REMARK   43  A    between atoms: _107  and  _109
REMARK   44  A    between atoms: _109  and  _110
REMARK   45  A    between atoms: _109  and  _112
REMARK   46  A    between atoms: _112  and  _113
REMARK   47  A    between atoms: _113  and  _148
REMARK   48  A    between atoms: _114  and  _116
REMARK   49  A    between atoms: _116  and  _117
REMARK   50  A    between atoms: _119  and  _121
REMARK   51  A    between atoms: _121  and  _122
REMARK   52  A    between atoms: _125  and  _127
REMARK   53  A    between atoms: _127  and  _128
REMARK   54  A    between atoms: _131  and  _133
REMARK   55  A    between atoms: _133  and  _134
REMARK   56  A    between atoms: _133  and  _136
REMARK   57  A    between atoms: _136  and  _137
REMARK   58  A    between atoms: _142  and  _144
REMARK   59  A    between atoms: _144  and  _145
REMARK   60  A    between atoms: _144  and  _147
REMARK   61  A    between atoms: _147  and  _148
REMARK   62  A    between atoms: _149  and  _151
REMARK   63  A    between atoms: _151  and  _152
REMARK   64  A    between atoms: _151  and  _154
REMARK   65  A    between atoms: _154  and  _155
REMARK   66  A    between atoms: _161  and  _163
REMARK   67  A    between atoms: _163  and  _164
REMARK   68  A    between atoms: _163  and  _166
REMARK   69  A    between atoms: _166  and  _167
REMARK   70  A    between atoms: _172  and  _173
REMARK   71  A    between atoms: _175  and  _177
REMARK   72  A    between atoms: _177  and  _178
REMARK   73  A    between atoms: _180  and  _182
REMARK   74  A    between atoms: _182  and  _183
REMARK   75  A    between atoms: _182  and  _185
REMARK   76  A    between atoms: _188  and  _190
REMARK   77  A    between atoms: _190  and  _191
REMARK   78  A    between atoms: _190  and  _193
REMARK   79  A    between atoms: _193  and  _194
REMARK   80  A    between atoms: _194  and  _195
REMARK   81  A    between atoms: _200  and  _202
REMARK   82  A    between atoms: _202  and  _203
REMARK   83  A    between atoms: _202  and  _205
REMARK   84  A    between atoms: _205  and  _206
REMARK   85  A    between atoms: _211  and  _212
REMARK   86  A    between atoms: _214  and  _216
REMARK   87  A    between atoms: _216  and  _217
REMARK   88  A    between atoms: _220  and  _222
REMARK   89  A    between atoms: _222  and  _223
REMARK   90  A    between atoms: _222  and  _225
REMARK   91  A    between atoms: _225  and  _226
REMARK   92  A    between atoms: _229  and  _231
REMARK   93  A    between atoms: _231  and  _232
REMARK   94  A    between atoms: _231  and  _234
REMARK   95  A    between atoms: _237  and  _239
REMARK   96  A    between atoms: _239  and  _240
REMARK   97  A    between atoms: _239  and  _242
REMARK   98  A    between atoms: _242  and  _243
REMARK   99  A    between atoms: _253  and  _255
REMARK  100  A    between atoms: _255  and  _256
REMARK  101  A    between atoms: _258  and  _260
REMARK  102  A    between atoms: _260  and  _261
REMARK  103  A    between atoms: _260  and  _263
REMARK  104  A    between atoms: _263  and  _264
REMARK  105  A    between atoms: _269  and  _270
REMARK  106  A    between atoms: _272  and  _274
REMARK  107  A    between atoms: _274  and  _275
REMARK  108  A    between atoms: _274  and  _277
REMARK  109  A    between atoms: _277  and  _278
REMARK  110  A    between atoms: _278  and  _279
REMARK  111  A    between atoms: _279  and  _280
REMARK  112  A    between atoms: _280  and  _281
REMARK  113  A    between atoms: _285  and  _287
REMARK  114  A    between atoms: _287  and  _288
REMARK  115  A    between atoms: _287  and  _290
REMARK  116  A    between atoms: _290  and  _291
REMARK  117  A    between atoms: _294  and  _296
REMARK  118  A    between atoms: _296  and  _297
REMARK  119  A    between atoms: _296  and  _299
REMARK  120  A    between atoms: _299  and  _300
REMARK  121  A    between atoms: _303  and  _305
REMARK  122  A    between atoms: _305  and  _306
REMARK  123  A    between atoms: _305  and  _308
REMARK  124  A    between atoms: _308  and  _309
REMARK  125  A    between atoms: _309  and  _310
REMARK  126  A    between atoms: _310  and  _311
REMARK  127  A    between atoms: _311  and  _312
REMARK  128  A    between atoms: _316  and  _318
REMARK  129  A    between atoms: _318  and  _319
REMARK  130  A    between atoms: _318  and  _321
REMARK  131  A    between atoms: _321  and  _322
REMARK  132  A    between atoms: _325  and  _327
REMARK  133  A    between atoms: _327  and  _328
REMARK  134  A    between atoms: _327  and  _330
REMARK  135  A    between atoms: _330  and  _331
REMARK  136  A    between atoms: _331  and  _332
REMARK  137  A    between atoms: _337  and  _339
REMARK  138  A    between atoms: _339  and  _340
REMARK  139  A    between atoms: _339  and  _342
REMARK  140  A    between atoms: _342  and  _343
REMARK  141  A    between atoms: _346  and  _348
REMARK  142  A    between atoms: _348  and  _349
REMARK  143  A    between atoms: _348  and  _351
REMARK  144  A    between atoms: _351  and  _352
REMARK  145  A    between atoms: _357  and  _358
REMARK  146  A    between atoms: _360  and  _362
REMARK  147  A    between atoms: _362  and  _363
REMARK  148  A    between atoms: _362  and  _365
REMARK  149  A    between atoms: _365  and  _366
REMARK  150  A    between atoms: _369  and  _371
REMARK  151  A    between atoms: _371  and  _372
REMARK  152  A    between atoms: _371  and  _374
REMARK  153  A    between atoms: _376  and  _378
REMARK  154  A    between atoms: _378  and  _379
REMARK  155  A    between atoms: _382  and  _384
REMARK  156  A    between atoms: _384  and  _385
REMARK  157  A    between atoms: _384  and  _387
REMARK  158  A    between atoms: _387  and  _388
REMARK  159  A    between atoms: _388  and  _389
REMARK  160  A    between atoms: _389  and  _390
REMARK  161  A    between atoms: _390  and  _391
REMARK  162  A    between atoms: _395  and  _397
REMARK  163  A    between atoms: _397  and  _398
REMARK  164  A    between atoms: _397  and  _400
REMARK  165  A    between atoms: _400  and  _401
REMARK  166  A    between atoms: _404  and  _406
REMARK  167  A    between atoms: _406  and  _407
REMARK  168  A    between atoms: _410  and  _412
REMARK  169  A    between atoms: _412  and  _413
REMARK  170  A    between atoms: _412  and  _415
REMARK  171  A    between atoms: _415  and  _416
REMARK  172  A    between atoms: _416  and  _530
REMARK  173  A    between atoms: _417  and  _419
REMARK  174  A    between atoms: _419  and  _420
REMARK  175  A    between atoms: _419  and  _422
REMARK  176  A    between atoms: _422  and  _423
REMARK  177  A    between atoms: _423  and  _424
REMARK  178  A    between atoms: _424  and  _425
REMARK  179  A    between atoms: _425  and  _426
REMARK  180  A    between atoms: _430  and  _432
REMARK  181  A    between atoms: _432  and  _433
REMARK  182  A    between atoms: _435  and  _437
REMARK  183  A    between atoms: _437  and  _438
REMARK  184  A    between atoms: _437  and  _440
REMARK  185  A    between atoms: _440  and  _441
REMARK  186  A    between atoms: _444  and  _446
REMARK  187  A    between atoms: _446  and  _447
REMARK  188  A    between atoms: _446  and  _449
REMARK  189  A    between atoms: _449  and  _450
REMARK  190  A    between atoms: _452  and  _454
REMARK  191  A    between atoms: _454  and  _455
REMARK  192  A    between atoms: _457  and  _459
REMARK  193  A    between atoms: _459  and  _460
REMARK  194  A    between atoms: _462  and  _464
REMARK  195  A    between atoms: _464  and  _465
REMARK  196  A    between atoms: _464  and  _467
REMARK  197  A    between atoms: _467  and  _468
REMARK  198  A    between atoms: _471  and  _473
REMARK  199  A    between atoms: _473  and  _474
REMARK  200  A    between atoms: _473  and  _476
REMARK  201  A    between atoms: _476  and  _477
REMARK  202  A    between atoms: _480  and  _482
REMARK  203  A    between atoms: _482  and  _483
REMARK  204  A    between atoms: _482  and  _485
REMARK  205  A    between atoms: _485  and  _486
REMARK  206  A    between atoms: _488  and  _490
REMARK  207  A    between atoms: _490  and  _491
REMARK  208  A    between atoms: _490  and  _493
REMARK  209  A    between atoms: _493  and  _494
REMARK  210  A    between atoms: _504  and  _506
REMARK  211  A    between atoms: _506  and  _507
REMARK  212  A    between atoms: _509  and  _511
REMARK  213  A    between atoms: _511  and  _512
REMARK  214  A    between atoms: _511  and  _514
REMARK  215  A    between atoms: _514  and  _515
REMARK  216  A    between atoms: _515  and  _516
REMARK  217  A    between atoms: _519  and  _521
REMARK  218  A    between atoms: _521  and  _522
REMARK  219  A    between atoms: _524  and  _526
REMARK  220  A    between atoms: _526  and  _527
REMARK  221  A    between atoms: _526  and  _529
REMARK  222  A    between atoms: _529  and  _530
REMARK  223  A    between atoms: _531  and  _533
REMARK  224  A    between atoms: _533  and  _534
REMARK  225  A    between atoms: _537  and  _539
REMARK  226  A    between atoms: _539  and  _540
REMARK  227  A    between atoms: _539  and  _542
REMARK  228  A    between atoms: _542  and  _543
REMARK  229  A    between atoms: _543  and  _544
REMARK  230  A    between atoms: _549  and  _551
REMARK  231  A    between atoms: _551  and  _552
REMARK  232  A    between atoms: _551  and  _554
REMARK  233  A    between atoms: _554  and  _555
REMARK  234  A    between atoms: _555  and  _556
REMARK  235  A    between atoms: _556  and  _557
REMARK  236  A    between atoms: _567  and  _568
REMARK  237  A    between atoms: _573  and  _575
REMARK  238  A    between atoms: _575  and  _576
REMARK  239  A    between atoms: _578  and  _580
REMARK  240  A    between atoms: _580  and  _581
REMARK  241  A    between atoms: _580  and  _583
REMARK  242  A    between atoms: _586  and  _588
REMARK  243  A    between atoms: _588  and  _589
REMARK  244  A    between atoms: _588  and  _591
REMARK  245  A    between atoms: _591  and  _592
REMARK  246  A    between atoms: _597  and  _598
REMARK  247  A    between atoms: _600  and  _602
REMARK  248  A    between atoms: _602  and  _603
REMARK  249  A    between atoms: _602  and  _605
REMARK  250  A    between atoms: _605  and  _606
REMARK                            x       y       z     vdW  Elec       q    Type
REMARK                         _______ _______ _______ _____ _____    ______ ____
ROOT
ATOM      1  O   HOH     1      10.934  19.067 -36.104  0.00  0.00    +0.000 OA
ENDROOT
TORSDOF 0
REMARK  Name = ../refined-set-2016/4x6p/4x6p_pocket.pdb
REMARK  250 active torsions:
REMARK  status: ('A' for Active; 'I' for Inactive)
REMARK    1  A    between atoms: _1  and  _5
REMARK    2  A    between atoms: _5  and  _6
REMARK    3  A    between atoms: _5  and  _8
REMARK    4  A    between atoms: _8  and  _9
REMARK    5  A    between atoms: _12  and  _14
REMARK    6  A    between atoms: _14  and  _15
REMARK    7  A    between atoms: _14  and  _17
REMARK    8  A    between atoms: _20  and  _22
REMARK    9  A    between atoms: _22  and  _23
REMARK   10  A    between atoms: _22  and  _25
REMARK   11  A    between atoms: _25  and  _26
REMARK   12  A    between atoms: _29  and  _31
REMARK   13  A    between atoms: _31  and  _32
REMARK   14  A    between atoms: _31  and  _34
REMARK   15  A    between atoms: _34  and  _35
REMARK   16  A    between atoms: _38  and  _40
REMARK   17  A    between atoms: _40  and  _41
REMARK   18  A    between atoms: _40  and  _43
REMARK   19  A    between atoms: _43  and  _44
REMARK   20  A    between atoms: _49  and  _51
REMARK   21  A    between atoms: _51  and  _52
REMARK   22  A    between atoms: _51  and  _54
REMARK   23  A    between atoms: _54  and  _55
REMARK   24  A    between atoms: _58  and  _60
REMARK   25  A    between atoms: _60  and  _61
REMARK   26  A    between atoms: _60  and  _63
REMARK   27  A    between atoms: _63  and  _64
REMARK   28  A    between atoms: _64  and  _65
REMARK   29  A    between atoms: _70  and  _72
REMARK   30  A    between atoms: _72  and  _73
REMARK   31  A    between atoms: _72  and  _75
REMARK   32  A    between atoms: _75  and  _76
REMARK   33  A    between atoms: _76  and  _77
REMARK   34  A    between atoms: _77  and  _78
REMARK   35  A    between atoms: _87  and  _89
REMARK   36  A    between atoms: _89  and  _90
REMARK   37  A    between atoms: _89  and  _92
REMARK   38  A    between atoms: _92  and  _93
REMARK   39  A    between atoms: _98  and  _100
REMARK   40  A    between atoms: _100  and  _101
REMARK   41  A    between atoms: _100  and  _103
REMARK   42  A    between atoms: _103  and  _104
REMARK   43  A    between atoms: _107  and  _109
REMARK   44  A    between atoms: _109  and  _110
REMARK   45  A    between atoms: _109  and  _112
REMARK   46  A    between atoms: _112  and  _113
REMARK   47  A    between atoms: _113  and  _148
REMARK   48  A    between atoms: _114  and  _116
REMARK   49  A    between atoms: _116  and  _117
REMARK   50  A    between atoms: _119  and  _121
REMARK   51  A    between atoms: _121  and  _122
REMARK   52  A    between atoms: _125  and  _127
REMARK   53  A    between atoms: _127  and  _128
REMARK   54  A    between atoms: _131  and  _133
REMARK   55  A    between atoms: _133  and  _134
REMARK   56  A    between atoms: _133  and  _136
REMARK   57  A    between atoms: _136  and  _137
REMARK   58  A    between atoms: _142  and  _144
REMARK   59  A    between atoms: _144  and  _145
REMARK   60  A    between atoms: _144  and  _147
REMARK   61  A    between atoms: _147  and  _148
REMARK   62  A    between atoms: _149  and  _151
REMARK   63  A    between atoms: _151  and  _152
REMARK   64  A    between atoms: _151  and  _154
REMARK   65  A    between atoms: _154  and  _155
REMARK   66  A    between atoms: _161  and  _163
REMARK   67  A    between atoms: _163  and  _164
REMARK   68  A    between atoms: _163  and  _166
REMARK   69  A    between atoms: _166  and  _167
REMARK   70  A    between atoms: _172  and  _173
REMARK   71  A    between atoms: _175  and  _177
REMARK   72  A    between atoms: _177  and  _178
REMARK   73  A    between atoms: _180  and  _182
REMARK   74  A    between atoms: _182  and  _183
REMARK   75  A    between atoms: _182  and  _185
REMARK   76  A    between atoms: _188  and  _190
REMARK   77  A    between atoms: _190  and  _191
REMARK   78  A    between atoms: _190  and  _193
REMARK   79  A    between atoms: _193  and  _194
REMARK   80  A    between atoms: _194  and  _195
REMARK   81  A    between atoms: _200  and  _202
REMARK   82  A    between atoms: _202  and  _203
REMARK   83  A    between atoms: _202  and  _205
REMARK   84  A    between atoms: _205  and  _206
REMARK   85  A    between atoms: _211  and  _212
REMARK   86  A    between atoms: _214  and  _216
REMARK   87  A    between atoms: _216  and  _217
REMARK   88  A    between atoms: _220  and  _222
REMARK   89  A    between atoms: _222  and  _223
REMARK   90  A    between atoms: _222  and  _225
REMARK   91  A    between atoms: _225  and  _226
REMARK   92  A    between atoms: _229  and  _231
REMARK   93  A    between atoms: _231  and  _232
REMARK   94  A    between atoms: _231  and  _234
REMARK   95  A    between atoms: _237  and  _239
REMARK   96  A    between atoms: _239  and  _240
REMARK   97  A    between atoms: _239  and  _242
REMARK   98  A    between atoms: _242  and  _243
REMARK   99  A    between atoms: _253  and  _255
REMARK  100  A    between atoms: _255  and  _256
REMARK  101  A    between atoms: _258  and  _260
REMARK  102  A    between atoms: _260  and  _261
REMARK  103  A    between atoms: _260  and  _263
REMARK  104  A    between atoms: _263  and  _264
REMARK  105  A    between atoms: _269  and  _270
REMARK  106  A    between atoms: _272  and  _274
REMARK  107  A    between atoms: _274  and  _275
REMARK  108  A    between atoms: _274  and  _277
REMARK  109  A    between atoms: _277  and  _278
REMARK  110  A    between atoms: _278  and  _279
REMARK  111  A    between atoms: _279  and  _280
REMARK  112  A    between atoms: _280  and  _281
REMARK  113  A    between atoms: _285  and  _287
REMARK  114  A    between atoms: _287  and  _288
REMARK  115  A    between atoms: _287  and  _290
REMARK  116  A    between atoms: _290  and  _291
REMARK  117  A    between atoms: _294  and  _296
REMARK  118  A    between atoms: _296  and  _297
REMARK  119  A    between atoms: _296  and  _299
REMARK  120  A    between atoms: _299  and  _300
REMARK  121  A    between atoms: _303  and  _305
REMARK  122  A    between atoms: _305  and  _306
REMARK  123  A    between atoms: _305  and  _308
REMARK  124  A    between atoms: _308  and  _309
REMARK  125  A    between atoms: _309  and  _310
REMARK  126  A    between atoms: _310  and  _311
REMARK  127  A    between atoms: _311  and  _312
REMARK  128  A    between atoms: _316  and  _318
REMARK  129  A    between atoms: _318  and  _319
REMARK  130  A    between atoms: _318  and  _321
REMARK  131  A    between atoms: _321  and  _322
REMARK  132  A    between atoms: _325  and  _327
REMARK  133  A    between atoms: _327  and  _328
REMARK  134  A    between atoms: _327  and  _330
REMARK  135  A    between atoms: _330  and  _331
REMARK  136  A    between atoms: _331  and  _332
REMARK  137  A    between atoms: _337  and  _339
REMARK  138  A    between atoms: _339  and  _340
REMARK  139  A    between atoms: _339  and  _342
REMARK  140  A    between atoms: _342  and  _343
REMARK  141  A    between atoms: _346  and  _348
REMARK  142  A    between atoms: _348  and  _349
REMARK  143  A    between atoms: _348  and  _351
REMARK  144  A    between atoms: _351  and  _352
REMARK  145  A    between atoms: _357  and  _358
REMARK  146  A    between atoms: _360  and  _362
REMARK  147  A    between atoms: _362  and  _363
REMARK  148  A    between atoms: _362  and  _365
REMARK  149  A    between atoms: _365  and  _366
REMARK  150  A    between atoms: _369  and  _371
REMARK  151  A    between atoms: _371  and  _372
REMARK  152  A    between atoms: _371  and  _374
REMARK  153  A    between atoms: _376  and  _378
REMARK  154  A    between atoms: _378  and  _379
REMARK  155  A    between atoms: _382  and  _384
REMARK  156  A    between atoms: _384  and  _385
REMARK  157  A    between atoms: _384  and  _387
REMARK  158  A    between atoms: _387  and  _388
REMARK  159  A    between atoms: _388  and  _389
REMARK  160  A    between atoms: _389  and  _390
REMARK  161  A    between atoms: _390  and  _391
REMARK  162  A    between atoms: _395  and  _397
REMARK  163  A    between atoms: _397  and  _398
REMARK  164  A    between atoms: _397  and  _400
REMARK  165  A    between atoms: _400  and  _401
REMARK  166  A    between atoms: _404  and  _406
REMARK  167  A    between atoms: _406  and  _407
REMARK  168  A    between atoms: _410  and  _412
REMARK  169  A    between atoms: _412  and  _413
REMARK  170  A    between atoms: _412  and  _415
REMARK  171  A    between atoms: _415  and  _416
REMARK  172  A    between atoms: _416  and  _530
REMARK  173  A    between atoms: _417  and  _419
REMARK  174  A    between atoms: _419  and  _420
REMARK  175  A    between atoms: _419  and  _422
REMARK  176  A    between atoms: _422  and  _423
REMARK  177  A    between atoms: _423  and  _424
REMARK  178  A    between atoms: _424  and  _425
REMARK  179  A    between atoms: _425  and  _426
REMARK  180  A    between atoms: _430  and  _432
REMARK  181  A    between atoms: _432  and  _433
REMARK  182  A    between atoms: _435  and  _437
REMARK  183  A    between atoms: _437  and  _438
REMARK  184  A    between atoms: _437  and  _440
REMARK  185  A    between atoms: _440  and  _441
REMARK  186  A    between atoms: _444  and  _446
REMARK  187  A    between atoms: _446  and  _447
REMARK  188  A    between atoms: _446  and  _449
REMARK  189  A    between atoms: _449  and  _450
REMARK  190  A    between atoms: _452  and  _454
REMARK  191  A    between atoms: _454  and  _455
REMARK  192  A    between atoms: _457  and  _459
REMARK  193  A    between atoms: _459  and  _460
REMARK  194  A    between atoms: _462  and  _464
REMARK  195  A    between atoms: _464  and  _465
REMARK  196  A    between atoms: _464  and  _467
REMARK  197  A    between atoms: _467  and  _468
REMARK  198  A    between atoms: _471  and  _473
REMARK  199  A    between atoms: _473  and  _474
REMARK  200  A    between atoms: _473  and  _476
REMARK  201  A    between atoms: _476  and  _477
REMARK  202  A    between atoms: _480  and  _482
REMARK  203  A    between atoms: _482  and  _483
REMARK  204  A    between atoms: _482  and  _485
REMARK  205  A    between atoms: _485  and  _486
REMARK  206  A    between atoms: _488  and  _490
REMARK  207  A    between atoms: _490  and  _491
REMARK  208  A    between atoms: _490  and  _493
REMARK  209  A    between atoms: _493  and  _494
REMARK  210  A    between atoms: _504  and  _506
REMARK  211  A    between atoms: _506  and  _507
REMARK  212  A    between atoms: _509  and  _511
REMARK  213  A    between atoms: _511  and  _512
REMARK  214  A    between atoms: _511  and  _514
REMARK  215  A    between atoms: _514  and  _515
REMARK  216  A    between atoms: _515  and  _516
REMARK  217  A    between atoms: _519  and  _521
REMARK  218  A    between atoms: _521  and  _522
REMARK  219  A    between atoms: _524  and  _526
REMARK  220  A    between atoms: _526  and  _527
REMARK  221  A    between atoms: _526  and  _529
REMARK  222  A    between atoms: _529  and  _530
REMARK  223  A    between atoms: _531  and  _533
REMARK  224  A    between atoms: _533  and  _534
REMARK  225  A    between atoms: _537  and  _539
REMARK  226  A    between atoms: _539  and  _540
REMARK  227  A    between atoms: _539  and  _542
REMARK  228  A    between atoms: _542  and  _543
REMARK  229  A    between atoms: _543  and  _544
REMARK  230  A    between atoms: _549  and  _551
REMARK  231  A    between atoms: _551  and  _552
REMARK  232  A    between atoms: _551  and  _554
REMARK  233  A    between atoms: _554  and  _555
REMARK  234  A    between atoms: _555  and  _556
REMARK  235  A    between atoms: _556  and  _557
REMARK  236  A    between atoms: _567  and  _568
REMARK  237  A    between atoms: _573  and  _575
REMARK  238  A    between atoms: _575  and  _576
REMARK  239  A    between atoms: _578  and  _580
REMARK  240  A    between atoms: _580  and  _581
REMARK  241  A    between atoms: _580  and  _583
REMARK  242  A    between atoms: _586  and  _588
REMARK  243  A    between atoms: _588  and  _589
REMARK  244  A    between atoms: _588  and  _591
REMARK  245  A    between atoms: _591  and  _592
REMARK  246  A    between atoms: _597  and  _598
REMARK  247  A    between atoms: _600  and  _602
REMARK  248  A    between atoms: _602  and  _603
REMARK  249  A    between atoms: _602  and  _605
REMARK  250  A    between atoms: _605  and  _606
REMARK                            x       y       z     vdW  Elec       q    Type
REMARK                         _______ _______ _______ _____ _____    ______ ____
ROOT
ATOM      1  O   HOH     1      15.571  21.812 -41.051  0.00  0.00    +0.000 OA
ENDROOT
TORSDOF 0
REMARK  Name = ../refined-set-2016/4x6p/4x6p_pocket.pdb
REMARK  250 active torsions:
REMARK  status: ('A' for Active; 'I' for Inactive)
REMARK    1  A    between atoms: _1  and  _5
REMARK    2  A    between atoms: _5  and  _6
REMARK    3  A    between atoms: _5  and  _8
REMARK    4  A    between atoms: _8  and  _9
REMARK    5  A    between atoms: _12  and  _14
REMARK    6  A    between atoms: _14  and  _15
REMARK    7  A    between atoms: _14  and  _17
REMARK    8  A    between atoms: _20  and  _22
REMARK    9  A    between atoms: _22  and  _23
REMARK   10  A    between atoms: _22  and  _25
REMARK   11  A    between atoms: _25  and  _26
REMARK   12  A    between atoms: _29  and  _31
REMARK   13  A    between atoms: _31  and  _32
REMARK   14  A    between atoms: _31  and  _34
REMARK   15  A    between atoms: _34  and  _35
REMARK   16  A    between atoms: _38  and  _40
REMARK   17  A    between atoms: _40  and  _41
REMARK   18  A    between atoms: _40  and  _43
REMARK   19  A    between atoms: _43  and  _44
REMARK   20  A    between atoms: _49  and  _51
REMARK   21  A    between atoms: _51  and  _52
REMARK   22  A    between atoms: _51  and  _54
REMARK   23  A    between atoms: _54  and  _55
REMARK   24  A    between atoms: _58  and  _60
REMARK   25  A    between atoms: _60  and  _61
REMARK   26  A    between atoms: _60  and  _63
REMARK   27  A    between atoms: _63  and  _64
REMARK   28  A    between atoms: _64  and  _65
REMARK   29  A    between atoms: _70  and  _72
REMARK   30  A    between atoms: _72  and  _73
REMARK   31  A    between atoms: _72  and  _75
REMARK   32  A    between atoms: _75  and  _76
REMARK   33  A    between atoms: _76  and  _77
REMARK   34  A    between atoms: _77  and  _78
REMARK   35  A    between atoms: _87  and  _89
REMARK   36  A    between atoms: _89  and  _90
REMARK   37  A    between atoms: _89  and  _92
REMARK   38  A    between atoms: _92  and  _93
REMARK   39  A    between atoms: _98  and  _100
REMARK   40  A    between atoms: _100  and  _101
REMARK   41  A    between atoms: _100  and  _103
REMARK   42  A    between atoms: _103  and  _104
REMARK   43  A    between atoms: _107  and  _109
REMARK   44  A    between atoms: _109  and  _110
REMARK   45  A    between atoms: _109  and  _112
REMARK   46  A    between atoms: _112  and  _113
REMARK   47  A    between atoms: _113  and  _148
REMARK   48  A    between atoms: _114  and  _116
REMARK   49  A    between atoms: _116  and  _117
REMARK   50  A    between atoms: _119  and  _121
REMARK   51  A    between atoms: _121  and  _122
REMARK   52  A    between atoms: _125  and  _127
REMARK   53  A    between atoms: _127  and  _128
REMARK   54  A    between atoms: _131  and  _133
REMARK   55  A    between atoms: _133  and  _134
REMARK   56  A    between atoms: _133  and  _136
REMARK   57  A    between atoms: _136  and  _137
REMARK   58  A    between atoms: _142  and  _144
REMARK   59  A    between atoms: _144  and  _145
REMARK   60  A    between atoms: _144  and  _147
REMARK   61  A    between atoms: _147  and  _148
REMARK   62  A    between atoms: _149  and  _151
REMARK   63  A    between atoms: _151  and  _152
REMARK   64  A    between atoms: _151  and  _154
REMARK   65  A    between atoms: _154  and  _155
REMARK   66  A    between atoms: _161  and  _163
REMARK   67  A    between atoms: _163  and  _164
REMARK   68  A    between atoms: _163  and  _166
REMARK   69  A    between atoms: _166  and  _167
REMARK   70  A    between atoms: _172  and  _173
REMARK   71  A    between atoms: _175  and  _177
REMARK   72  A    between atoms: _177  and  _178
REMARK   73  A    between atoms: _180  and  _182
REMARK   74  A    between atoms: _182  and  _183
REMARK   75  A    between atoms: _182  and  _185
REMARK   76  A    between atoms: _188  and  _190
REMARK   77  A    between atoms: _190  and  _191
REMARK   78  A    between atoms: _190  and  _193
REMARK   79  A    between atoms: _193  and  _194
REMARK   80  A    between atoms: _194  and  _195
REMARK   81  A    between atoms: _200  and  _202
REMARK   82  A    between atoms: _202  and  _203
REMARK   83  A    between atoms: _202  and  _205
REMARK   84  A    between atoms: _205  and  _206
REMARK   85  A    between atoms: _211  and  _212
REMARK   86  A    between atoms: _214  and  _216
REMARK   87  A    between atoms: _216  and  _217
REMARK   88  A    between atoms: _220  and  _222
REMARK   89  A    between atoms: _222  and  _223
REMARK   90  A    between atoms: _222  and  _225
REMARK   91  A    between atoms: _225  and  _226
REMARK   92  A    between atoms: _229  and  _231
REMARK   93  A    between atoms: _231  and  _232
REMARK   94  A    between atoms: _231  and  _234
REMARK   95  A    between atoms: _237  and  _239
REMARK   96  A    between atoms: _239  and  _240
REMARK   97  A    between atoms: _239  and  _242
REMARK   98  A    between atoms: _242  and  _243
REMARK   99  A    between atoms: _253  and  _255
REMARK  100  A    between atoms: _255  and  _256
REMARK  101  A    between atoms: _258  and  _260
REMARK  102  A    between atoms: _260  and  _261
REMARK  103  A    between atoms: _260  and  _263
REMARK  104  A    between atoms: _263  and  _264
REMARK  105  A    between atoms: _269  and  _270
REMARK  106  A    between atoms: _272  and  _274
REMARK  107  A    between atoms: _274  and  _275
REMARK  108  A    between atoms: _274  and  _277
REMARK  109  A    between atoms: _277  and  _278
REMARK  110  A    between atoms: _278  and  _279
REMARK  111  A    between atoms: _279  and  _280
REMARK  112  A    between atoms: _280  and  _281
REMARK  113  A    between atoms: _285  and  _287
REMARK  114  A    between atoms: _287  and  _288
REMARK  115  A    between atoms: _287  and  _290
REMARK  116  A    between atoms: _290  and  _291
REMARK  117  A    between atoms: _294  and  _296
REMARK  118  A    between atoms: _296  and  _297
REMARK  119  A    between atoms: _296  and  _299
REMARK  120  A    between atoms: _299  and  _300
REMARK  121  A    between atoms: _303  and  _305
REMARK  122  A    between atoms: _305  and  _306
REMARK  123  A    between atoms: _305  and  _308
REMARK  124  A    between atoms: _308  and  _309
REMARK  125  A    between atoms: _309  and  _310
REMARK  126  A    between atoms: _310  and  _311
REMARK  127  A    between atoms: _311  and  _312
REMARK  128  A    between atoms: _316  and  _318
REMARK  129  A    between atoms: _318  and  _319
REMARK  130  A    between atoms: _318  and  _321
REMARK  131  A    between atoms: _321  and  _322
REMARK  132  A    between atoms: _325  and  _327
REMARK  133  A    between atoms: _327  and  _328
REMARK  134  A    between atoms: _327  and  _330
REMARK  135  A    between atoms: _330  and  _331
REMARK  136  A    between atoms: _331  and  _332
REMARK  137  A    between atoms: _337  and  _339
REMARK  138  A    between atoms: _339  and  _340
REMARK  139  A    between atoms: _339  and  _342
REMARK  140  A    between atoms: _342  and  _343
REMARK  141  A    between atoms: _346  and  _348
REMARK  142  A    between atoms: _348  and  _349
REMARK  143  A    between atoms: _348  and  _351
REMARK  144  A    between atoms: _351  and  _352
REMARK  145  A    between atoms: _357  and  _358
REMARK  146  A    between atoms: _360  and  _362
REMARK  147  A    between atoms: _362  and  _363
REMARK  148  A    between atoms: _362  and  _365
REMARK  149  A    between atoms: _365  and  _366
REMARK  150  A    between atoms: _369  and  _371
REMARK  151  A    between atoms: _371  and  _372
REMARK  152  A    between atoms: _371  and  _374
REMARK  153  A    between atoms: _376  and  _378
REMARK  154  A    between atoms: _378  and  _379
REMARK  155  A    between atoms: _382  and  _384
REMARK  156  A    between atoms: _384  and  _385
REMARK  157  A    between atoms: _384  and  _387
REMARK  158  A    between atoms: _387  and  _388
REMARK  159  A    between atoms: _388  and  _389
REMARK  160  A    between atoms: _389  and  _390
REMARK  161  A    between atoms: _390  and  _391
REMARK  162  A    between atoms: _395  and  _397
REMARK  163  A    between atoms: _397  and  _398
REMARK  164  A    between atoms: _397  and  _400
REMARK  165  A    between atoms: _400  and  _401
REMARK  166  A    between atoms: _404  and  _406
REMARK  167  A    between atoms: _406  and  _407
REMARK  168  A    between atoms: _410  and  _412
REMARK  169  A    between atoms: _412  and  _413
REMARK  170  A    between atoms: _412  and  _415
REMARK  171  A    between atoms: _415  and  _416
REMARK  172  A    between atoms: _416  and  _530
REMARK  173  A    between atoms: _417  and  _419
REMARK  174  A    between atoms: _419  and  _420
REMARK  175  A    between atoms: _419  and  _422
REMARK  176  A    between atoms: _422  and  _423
REMARK  177  A    between atoms: _423  and  _424
REMARK  178  A    between atoms: _424  and  _425
REMARK  179  A    between atoms: _425  and  _426
REMARK  180  A    between atoms: _430  and  _432
REMARK  181  A    between atoms: _432  and  _433
REMARK  182  A    between atoms: _435  and  _437
REMARK  183  A    between atoms: _437  and  _438
REMARK  184  A    between atoms: _437  and  _440
REMARK  185  A    between atoms: _440  and  _441
REMARK  186  A    between atoms: _444  and  _446
REMARK  187  A    between atoms: _446  and  _447
REMARK  188  A    between atoms: _446  and  _449
REMARK  189  A    between atoms: _449  and  _450
REMARK  190  A    between atoms: _452  and  _454
REMARK  191  A    between atoms: _454  and  _455
REMARK  192  A    between atoms: _457  and  _459
REMARK  193  A    between atoms: _459  and  _460
REMARK  194  A    between atoms: _462  and  _464
REMARK  195  A    between atoms: _464  and  _465
REMARK  196  A    between atoms: _464  and  _467
REMARK  197  A    between atoms: _467  and  _468
REMARK  198  A    between atoms: _471  and  _473
REMARK  199  A    between atoms: _473  and  _474
REMARK  200  A    between atoms: _473  and  _476
REMARK  201  A    between atoms: _476  and  _477
REMARK  202  A    between atoms: _480  and  _482
REMARK  203  A    between atoms: _482  and  _483
REMARK  204  A    between atoms: _482  and  _485
REMARK  205  A    between atoms: _485  and  _486
REMARK  206  A    between atoms: _488  and  _490
REMARK  207  A    between atoms: _490  and  _491
REMARK  208  A    between atoms: _490  and  _493
REMARK  209  A    between atoms: _493  and  _494
REMARK  210  A    between atoms: _504  and  _506
REMARK  211  A    between atoms: _506  and  _507
REMARK  212  A    between atoms: _509  and  _511
REMARK  213  A    between atoms: _511  and  _512
REMARK  214  A    between atoms: _511  and  _514
REMARK  215  A    between atoms: _514  and  _515
REMARK  216  A    between atoms: _515  and  _516
REMARK  217  A    between atoms: _519  and  _521
REMARK  218  A    between atoms: _521  and  _522
REMARK  219  A    between atoms: _524  and  _526
REMARK  220  A    between atoms: _526  and  _527
REMARK  221  A    between atoms: _526  and  _529
REMARK  222  A    between atoms: _529  and  _530
REMARK  223  A    between atoms: _531  and  _533
REMARK  224  A    between atoms: _533  and  _534
REMARK  225  A    between atoms: _537  and  _539
REMARK  226  A    between atoms: _539  and  _540
REMARK  227  A    between atoms: _539  and  _542
REMARK  228  A    between atoms: _542  and  _543
REMARK  229  A    between atoms: _543  and  _544
REMARK  230  A    between atoms: _549  and  _551
REMARK  231  A    between atoms: _551  and  _552
REMARK  232  A    between atoms: _551  and  _554
REMARK  233  A    between atoms: _554  and  _555
REMARK  234  A    between atoms: _555  and  _556
REMARK  235  A    between atoms: _556  and  _557
REMARK  236  A    between atoms: _567  and  _568
REMARK  237  A    between atoms: _573  and  _575
REMARK  238  A    between atoms: _575  and  _576
REMARK  239  A    between atoms: _578  and  _580
REMARK  240  A    between atoms: _580  and  _581
REMARK  241  A    between atoms: _580  and  _583
REMARK  242  A    between atoms: _586  and  _588
REMARK  243  A    between atoms: _588  and  _589
REMARK  244  A    between atoms: _588  and  _591
REMARK  245  A    between atoms: _591  and  _592
REMARK  246  A    between atoms: _597  and  _598
REMARK  247  A    between atoms: _600  and  _602
REMARK  248  A    between atoms: _602  and  _603
REMARK  249  A    between atoms: _602  and  _605
REMARK  250  A    between atoms: _605  and  _606
REMARK                            x       y       z     vdW  Elec       q    Type
REMARK                         _______ _______ _______ _____ _____    ______ ____
ROOT
ATOM      1  O   HOH     1       2.999  13.200 -32.857  0.00  0.00    +0.000 OA
ENDROOT
TORSDOF 0
REMARK  Name = ../refined-set-2016/4x6p/4x6p_pocket.pdb
REMARK  250 active torsions:
REMARK  status: ('A' for Active; 'I' for Inactive)
REMARK    1  A    between atoms: _1  and  _5
REMARK    2  A    between atoms: _5  and  _6
REMARK    3  A    between atoms: _5  and  _8
REMARK    4  A    between atoms: _8  and  _9
REMARK    5  A    between atoms: _12  and  _14
REMARK    6  A    between atoms: _14  and  _15
REMARK    7  A    between atoms: _14  and  _17
REMARK    8  A    between atoms: _20  and  _22
REMARK    9  A    between atoms: _22  and  _23
REMARK   10  A    between atoms: _22  and  _25
REMARK   11  A    between atoms: _25  and  _26
REMARK   12  A    between atoms: _29  and  _31
REMARK   13  A    between atoms: _31  and  _32
REMARK   14  A    between atoms: _31  and  _34
REMARK   15  A    between atoms: _34  and  _35
REMARK   16  A    between atoms: _38  and  _40
REMARK   17  A    between atoms: _40  and  _41
REMARK   18  A    between atoms: _40  and  _43
REMARK   19  A    between atoms: _43  and  _44
REMARK   20  A    between atoms: _49  and  _51
REMARK   21  A    between atoms: _51  and  _52
REMARK   22  A    between atoms: _51  and  _54
REMARK   23  A    between atoms: _54  and  _55
REMARK   24  A    between atoms: _58  and  _60
REMARK   25  A    between atoms: _60  and  _61
REMARK   26  A    between atoms: _60  and  _63
REMARK   27  A    between atoms: _63  and  _64
REMARK   28  A    between atoms: _64  and  _65
REMARK   29  A    between atoms: _70  and  _72
REMARK   30  A    between atoms: _72  and  _73
REMARK   31  A    between atoms: _72  and  _75
REMARK   32  A    between atoms: _75  and  _76
REMARK   33  A    between atoms: _76  and  _77
REMARK   34  A    between atoms: _77  and  _78
REMARK   35  A    between atoms: _87  and  _89
REMARK   36  A    between atoms: _89  and  _90
REMARK   37  A    between atoms: _89  and  _92
REMARK   38  A    between atoms: _92  and  _93
REMARK   39  A    between atoms: _98  and  _100
REMARK   40  A    between atoms: _100  and  _101
REMARK   41  A    between atoms: _100  and  _103
REMARK   42  A    between atoms: _103  and  _104
REMARK   43  A    between atoms: _107  and  _109
REMARK   44  A    between atoms: _109  and  _110
REMARK   45  A    between atoms: _109  and  _112
REMARK   46  A    between atoms: _112  and  _113
REMARK   47  A    between atoms: _113  and  _148
REMARK   48  A    between atoms: _114  and  _116
REMARK   49  A    between atoms: _116  and  _117
REMARK   50  A    between atoms: _119  and  _121
REMARK   51  A    between atoms: _121  and  _122
REMARK   52  A    between atoms: _125  and  _127
REMARK   53  A    between atoms: _127  and  _128
REMARK   54  A    between atoms: _131  and  _133
REMARK   55  A    between atoms: _133  and  _134
REMARK   56  A    between atoms: _133  and  _136
REMARK   57  A    between atoms: _136  and  _137
REMARK   58  A    between atoms: _142  and  _144
REMARK   59  A    between atoms: _144  and  _145
REMARK   60  A    between atoms: _144  and  _147
REMARK   61  A    between atoms: _147  and  _148
REMARK   62  A    between atoms: _149  and  _151
REMARK   63  A    between atoms: _151  and  _152
REMARK   64  A    between atoms: _151  and  _154
REMARK   65  A    between atoms: _154  and  _155
REMARK   66  A    between atoms: _161  and  _163
REMARK   67  A    between atoms: _163  and  _164
REMARK   68  A    between atoms: _163  and  _166
REMARK   69  A    between atoms: _166  and  _167
REMARK   70  A    between atoms: _172  and  _173
REMARK   71  A    between atoms: _175  and  _177
REMARK   72  A    between atoms: _177  and  _178
REMARK   73  A    between atoms: _180  and  _182
REMARK   74  A    between atoms: _182  and  _183
REMARK   75  A    between atoms: _182  and  _185
REMARK   76  A    between atoms: _188  and  _190
REMARK   77  A    between atoms: _190  and  _191
REMARK   78  A    between atoms: _190  and  _193
REMARK   79  A    between atoms: _193  and  _194
REMARK   80  A    between atoms: _194  and  _195
REMARK   81  A    between atoms: _200  and  _202
REMARK   82  A    between atoms: _202  and  _203
REMARK   83  A    between atoms: _202  and  _205
REMARK   84  A    between atoms: _205  and  _206
REMARK   85  A    between atoms: _211  and  _212
REMARK   86  A    between atoms: _214  and  _216
REMARK   87  A    between atoms: _216  and  _217
REMARK   88  A    between atoms: _220  and  _222
REMARK   89  A    between atoms: _222  and  _223
REMARK   90  A    between atoms: _222  and  _225
REMARK   91  A    between atoms: _225  and  _226
REMARK   92  A    between atoms: _229  and  _231
REMARK   93  A    between atoms: _231  and  _232
REMARK   94  A    between atoms: _231  and  _234
REMARK   95  A    between atoms: _237  and  _239
REMARK   96  A    between atoms: _239  and  _240
REMARK   97  A    between atoms: _239  and  _242
REMARK   98  A    between atoms: _242  and  _243
REMARK   99  A    between atoms: _253  and  _255
REMARK  100  A    between atoms: _255  and  _256
REMARK  101  A    between atoms: _258  and  _260
REMARK  102  A    between atoms: _260  and  _261
REMARK  103  A    between atoms: _260  and  _263
REMARK  104  A    between atoms: _263  and  _264
REMARK  105  A    between atoms: _269  and  _270
REMARK  106  A    between atoms: _272  and  _274
REMARK  107  A    between atoms: _274  and  _275
REMARK  108  A    between atoms: _274  and  _277
REMARK  109  A    between atoms: _277  and  _278
REMARK  110  A    between atoms: _278  and  _279
REMARK  111  A    between atoms: _279  and  _280
REMARK  112  A    between atoms: _280  and  _281
REMARK  113  A    between atoms: _285  and  _287
REMARK  114  A    between atoms: _287  and  _288
REMARK  115  A    between atoms: _287  and  _290
REMARK  116  A    between atoms: _290  and  _291
REMARK  117  A    between atoms: _294  and  _296
REMARK  118  A    between atoms: _296  and  _297
REMARK  119  A    between atoms: _296  and  _299
REMARK  120  A    between atoms: _299  and  _300
REMARK  121  A    between atoms: _303  and  _305
REMARK  122  A    between atoms: _305  and  _306
REMARK  123  A    between atoms: _305  and  _308
REMARK  124  A    between atoms: _308  and  _309
REMARK  125  A    between atoms: _309  and  _310
REMARK  126  A    between atoms: _310  and  _311
REMARK  127  A    between atoms: _311  and  _312
REMARK  128  A    between atoms: _316  and  _318
REMARK  129  A    between atoms: _318  and  _319
REMARK  130  A    between atoms: _318  and  _321
REMARK  131  A    between atoms: _321  and  _322
REMARK  132  A    between atoms: _325  and  _327
REMARK  133  A    between atoms: _327  and  _328
REMARK  134  A    between atoms: _327  and  _330
REMARK  135  A    between atoms: _330  and  _331
REMARK  136  A    between atoms: _331  and  _332
REMARK  137  A    between atoms: _337  and  _339
REMARK  138  A    between atoms: _339  and  _340
REMARK  139  A    between atoms: _339  and  _342
REMARK  140  A    between atoms: _342  and  _343
REMARK  141  A    between atoms: _346  and  _348
REMARK  142  A    between atoms: _348  and  _349
REMARK  143  A    between atoms: _348  and  _351
REMARK  144  A    between atoms: _351  and  _352
REMARK  145  A    between atoms: _357  and  _358
REMARK  146  A    between atoms: _360  and  _362
REMARK  147  A    between atoms: _362  and  _363
REMARK  148  A    between atoms: _362  and  _365
REMARK  149  A    between atoms: _365  and  _366
REMARK  150  A    between atoms: _369  and  _371
REMARK  151  A    between atoms: _371  and  _372
REMARK  152  A    between atoms: _371  and  _374
REMARK  153  A    between atoms: _376  and  _378
REMARK  154  A    between atoms: _378  and  _379
REMARK  155  A    between atoms: _382  and  _384
REMARK  156  A    between atoms: _384  and  _385
REMARK  157  A    between atoms: _384  and  _387
REMARK  158  A    between atoms: _387  and  _388
REMARK  159  A    between atoms: _388  and  _389
REMARK  160  A    between atoms: _389  and  _390
REMARK  161  A    between atoms: _390  and  _391
REMARK  162  A    between atoms: _395  and  _397
REMARK  163  A    between atoms: _397  and  _398
REMARK  164  A    between atoms: _397  and  _400
REMARK  165  A    between atoms: _400  and  _401
REMARK  166  A    between atoms: _404  and  _406
REMARK  167  A    between atoms: _406  and  _407
REMARK  168  A    between atoms: _410  and  _412
REMARK  169  A    between atoms: _412  and  _413
REMARK  170  A    between atoms: _412  and  _415
REMARK  171  A    between atoms: _415  and  _416
REMARK  172  A    between atoms: _416  and  _530
REMARK  173  A    between atoms: _417  and  _419
REMARK  174  A    between atoms: _419  and  _420
REMARK  175  A    between atoms: _419  and  _422
REMARK  176  A    between atoms: _422  and  _423
REMARK  177  A    between atoms: _423  and  _424
REMARK  178  A    between atoms: _424  and  _425
REMARK  179  A    between atoms: _425  and  _426
REMARK  180  A    between atoms: _430  and  _432
REMARK  181  A    between atoms: _432  and  _433
REMARK  182  A    between atoms: _435  and  _437
REMARK  183  A    between atoms: _437  and  _438
REMARK  184  A    between atoms: _437  and  _440
REMARK  185  A    between atoms: _440  and  _441
REMARK  186  A    between atoms: _444  and  _446
REMARK  187  A    between atoms: _446  and  _447
REMARK  188  A    between atoms: _446  and  _449
REMARK  189  A    between atoms: _449  and  _450
REMARK  190  A    between atoms: _452  and  _454
REMARK  191  A    between atoms: _454  and  _455
REMARK  192  A    between atoms: _457  and  _459
REMARK  193  A    between atoms: _459  and  _460
REMARK  194  A    between atoms: _462  and  _464
REMARK  195  A    between atoms: _464  and  _465
REMARK  196  A    between atoms: _464  and  _467
REMARK  197  A    between atoms: _467  and  _468
REMARK  198  A    between atoms: _471  and  _473
REMARK  199  A    between atoms: _473  and  _474
REMARK  200  A    between atoms: _473  and  _476
REMARK  201  A    between atoms: _476  and  _477
REMARK  202  A    between atoms: _480  and  _482
REMARK  203  A    between atoms: _482  and  _483
REMARK  204  A    between atoms: _482  and  _485
REMARK  205  A    between atoms: _485  and  _486
REMARK  206  A    between atoms: _488  and  _490
REMARK  207  A    between atoms: _490  and  _491
REMARK  208  A    between atoms: _490  and  _493
REMARK  209  A    between atoms: _493  and  _494
REMARK  210  A    between atoms: _504  and  _506
REMARK  211  A    between atoms: _506  and  _507
REMARK  212  A    between atoms: _509  and  _511
REMARK  213  A    between atoms: _511  and  _512
REMARK  214  A    between atoms: _511  and  _514
REMARK  215  A    between atoms: _514  and  _515
REMARK  216  A    between atoms: _515  and  _516
REMARK  217  A    between atoms: _519  and  _521
REMARK  218  A    between atoms: _521  and  _522
REMARK  219  A    between atoms: _524  and  _526
REMARK  220  A    between atoms: _526  and  _527
REMARK  221  A    between atoms: _526  and  _529
REMARK  222  A    between atoms: _529  and  _530
REMARK  223  A    between atoms: _531  and  _533
REMARK  224  A    between atoms: _533  and  _534
REMARK  225  A    between atoms: _537  and  _539
REMARK  226  A    between atoms: _539  and  _540
REMARK  227  A    between atoms: _539  and  _542
REMARK  228  A    between atoms: _542  and  _543
REMARK  229  A    between atoms: _543  and  _544
REMARK  230  A    between atoms: _549  and  _551
REMARK  231  A    between atoms: _551  and  _552
REMARK  232  A    between atoms: _551  and  _554
REMARK  233  A    between atoms: _554  and  _555
REMARK  234  A    between atoms: _555  and  _556
REMARK  235  A    between atoms: _556  and  _557
REMARK  236  A    between atoms: _567  and  _568
REMARK  237  A    between atoms: _573  and  _575
REMARK  238  A    between atoms: _575  and  _576
REMARK  239  A    between atoms: _578  and  _580
REMARK  240  A    between atoms: _580  and  _581
REMARK  241  A    between atoms: _580  and  _583
REMARK  242  A    between atoms: _586  and  _588
REMARK  243  A    between atoms: _588  and  _589
REMARK  244  A    between atoms: _588  and  _591
REMARK  245  A    between atoms: _591  and  _592
REMARK  246  A    between atoms: _597  and  _598
REMARK  247  A    between atoms: _600  and  _602
REMARK  248  A    between atoms: _602  and  _603
REMARK  249  A    between atoms: _602  and  _605
REMARK  250  A    between atoms: _605  and  _606
REMARK                            x       y       z     vdW  Elec       q    Type
REMARK                         _______ _______ _______ _____ _____    ______ ____
ROOT
ATOM      1  O   HOH     1       3.019  12.465 -30.330  0.00  0.00    +0.000 OA
ENDROOT
TORSDOF 0
REMARK  Name = ../refined-set-2016/4x6p/4x6p_pocket.pdb
REMARK  250 active torsions:
REMARK  status: ('A' for Active; 'I' for Inactive)
REMARK    1  A    between atoms: _1  and  _5
REMARK    2  A    between atoms: _5  and  _6
REMARK    3  A    between atoms: _5  and  _8
REMARK    4  A    between atoms: _8  and  _9
REMARK    5  A    between atoms: _12  and  _14
REMARK    6  A    between atoms: _14  and  _15
REMARK    7  A    between atoms: _14  and  _17
REMARK    8  A    between atoms: _20  and  _22
REMARK    9  A    between atoms: _22  and  _23
REMARK   10  A    between atoms: _22  and  _25
REMARK   11  A    between atoms: _25  and  _26
REMARK   12  A    between atoms: _29  and  _31
REMARK   13  A    between atoms: _31  and  _32
REMARK   14  A    between atoms: _31  and  _34
REMARK   15  A    between atoms: _34  and  _35
REMARK   16  A    between atoms: _38  and  _40
REMARK   17  A    between atoms: _40  and  _41
REMARK   18  A    between atoms: _40  and  _43
REMARK   19  A    between atoms: _43  and  _44
REMARK   20  A    between atoms: _49  and  _51
REMARK   21  A    between atoms: _51  and  _52
REMARK   22  A    between atoms: _51  and  _54
REMARK   23  A    between atoms: _54  and  _55
REMARK   24  A    between atoms: _58  and  _60
REMARK   25  A    between atoms: _60  and  _61
REMARK   26  A    between atoms: _60  and  _63
REMARK   27  A    between atoms: _63  and  _64
REMARK   28  A    between atoms: _64  and  _65
REMARK   29  A    between atoms: _70  and  _72
REMARK   30  A    between atoms: _72  and  _73
REMARK   31  A    between atoms: _72  and  _75
REMARK   32  A    between atoms: _75  and  _76
REMARK   33  A    between atoms: _76  and  _77
REMARK   34  A    between atoms: _77  and  _78
REMARK   35  A    between atoms: _87  and  _89
REMARK   36  A    between atoms: _89  and  _90
REMARK   37  A    between atoms: _89  and  _92
REMARK   38  A    between atoms: _92  and  _93
REMARK   39  A    between atoms: _98  and  _100
REMARK   40  A    between atoms: _100  and  _101
REMARK   41  A    between atoms: _100  and  _103
REMARK   42  A    between atoms: _103  and  _104
REMARK   43  A    between atoms: _107  and  _109
REMARK   44  A    between atoms: _109  and  _110
REMARK   45  A    between atoms: _109  and  _112
REMARK   46  A    between atoms: _112  and  _113
REMARK   47  A    between atoms: _113  and  _148
REMARK   48  A    between atoms: _114  and  _116
REMARK   49  A    between atoms: _116  and  _117
REMARK   50  A    between atoms: _119  and  _121
REMARK   51  A    between atoms: _121  and  _122
REMARK   52  A    between atoms: _125  and  _127
REMARK   53  A    between atoms: _127  and  _128
REMARK   54  A    between atoms: _131  and  _133
REMARK   55  A    between atoms: _133  and  _134
REMARK   56  A    between atoms: _133  and  _136
REMARK   57  A    between atoms: _136  and  _137
REMARK   58  A    between atoms: _142  and  _144
REMARK   59  A    between atoms: _144  and  _145
REMARK   60  A    between atoms: _144  and  _147
REMARK   61  A    between atoms: _147  and  _148
REMARK   62  A    between atoms: _149  and  _151
REMARK   63  A    between atoms: _151  and  _152
REMARK   64  A    between atoms: _151  and  _154
REMARK   65  A    between atoms: _154  and  _155
REMARK   66  A    between atoms: _161  and  _163
REMARK   67  A    between atoms: _163  and  _164
REMARK   68  A    between atoms: _163  and  _166
REMARK   69  A    between atoms: _166  and  _167
REMARK   70  A    between atoms: _172  and  _173
REMARK   71  A    between atoms: _175  and  _177
REMARK   72  A    between atoms: _177  and  _178
REMARK   73  A    between atoms: _180  and  _182
REMARK   74  A    between atoms: _182  and  _183
REMARK   75  A    between atoms: _182  and  _185
REMARK   76  A    between atoms: _188  and  _190
REMARK   77  A    between atoms: _190  and  _191
REMARK   78  A    between atoms: _190  and  _193
REMARK   79  A    between atoms: _193  and  _194
REMARK   80  A    between atoms: _194  and  _195
REMARK   81  A    between atoms: _200  and  _202
REMARK   82  A    between atoms: _202  and  _203
REMARK   83  A    between atoms: _202  and  _205
REMARK   84  A    between atoms: _205  and  _206
REMARK   85  A    between atoms: _211  and  _212
REMARK   86  A    between atoms: _214  and  _216
REMARK   87  A    between atoms: _216  and  _217
REMARK   88  A    between atoms: _220  and  _222
REMARK   89  A    between atoms: _222  and  _223
REMARK   90  A    between atoms: _222  and  _225
REMARK   91  A    between atoms: _225  and  _226
REMARK   92  A    between atoms: _229  and  _231
REMARK   93  A    between atoms: _231  and  _232
REMARK   94  A    between atoms: _231  and  _234
REMARK   95  A    between atoms: _237  and  _239
REMARK   96  A    between atoms: _239  and  _240
REMARK   97  A    between atoms: _239  and  _242
REMARK   98  A    between atoms: _242  and  _243
REMARK   99  A    between atoms: _253  and  _255
REMARK  100  A    between atoms: _255  and  _256
REMARK  101  A    between atoms: _258  and  _260
REMARK  102  A    between atoms: _260  and  _261
REMARK  103  A    between atoms: _260  and  _263
REMARK  104  A    between atoms: _263  and  _264
REMARK  105  A    between atoms: _269  and  _270
REMARK  106  A    between atoms: _272  and  _274
REMARK  107  A    between atoms: _274  and  _275
REMARK  108  A    between atoms: _274  and  _277
REMARK  109  A    between atoms: _277  and  _278
REMARK  110  A    between atoms: _278  and  _279
REMARK  111  A    between atoms: _279  and  _280
REMARK  112  A    between atoms: _280  and  _281
REMARK  113  A    between atoms: _285  and  _287
REMARK  114  A    between atoms: _287  and  _288
REMARK  115  A    between atoms: _287  and  _290
REMARK  116  A    between atoms: _290  and  _291
REMARK  117  A    between atoms: _294  and  _296
REMARK  118  A    between atoms: _296  and  _297
REMARK  119  A    between atoms: _296  and  _299
REMARK  120  A    between atoms: _299  and  _300
REMARK  121  A    between atoms: _303  and  _305
REMARK  122  A    between atoms: _305  and  _306
REMARK  123  A    between atoms: _305  and  _308
REMARK  124  A    between atoms: _308  and  _309
REMARK  125  A    between atoms: _309  and  _310
REMARK  126  A    between atoms: _310  and  _311
REMARK  127  A    between atoms: _311  and  _312
REMARK  128  A    between atoms: _316  and  _318
REMARK  129  A    between atoms: _318  and  _319
REMARK  130  A    between atoms: _318  and  _321
REMARK  131  A    between atoms: _321  and  _322
REMARK  132  A    between atoms: _325  and  _327
REMARK  133  A    between atoms: _327  and  _328
REMARK  134  A    between atoms: _327  and  _330
REMARK  135  A    between atoms: _330  and  _331
REMARK  136  A    between atoms: _331  and  _332
REMARK  137  A    between atoms: _337  and  _339
REMARK  138  A    between atoms: _339  and  _340
REMARK  139  A    between atoms: _339  and  _342
REMARK  140  A    between atoms: _342  and  _343
REMARK  141  A    between atoms: _346  and  _348
REMARK  142  A    between atoms: _348  and  _349
REMARK  143  A    between atoms: _348  and  _351
REMARK  144  A    between atoms: _351  and  _352
REMARK  145  A    between atoms: _357  and  _358
REMARK  146  A    between atoms: _360  and  _362
REMARK  147  A    between atoms: _362  and  _363
REMARK  148  A    between atoms: _362  and  _365
REMARK  149  A    between atoms: _365  and  _366
REMARK  150  A    between atoms: _369  and  _371
REMARK  151  A    between atoms: _371  and  _372
REMARK  152  A    between atoms: _371  and  _374
REMARK  153  A    between atoms: _376  and  _378
REMARK  154  A    between atoms: _378  and  _379
REMARK  155  A    between atoms: _382  and  _384
REMARK  156  A    between atoms: _384  and  _385
REMARK  157  A    between atoms: _384  and  _387
REMARK  158  A    between atoms: _387  and  _388
REMARK  159  A    between atoms: _388  and  _389
REMARK  160  A    between atoms: _389  and  _390
REMARK  161  A    between atoms: _390  and  _391
REMARK  162  A    between atoms: _395  and  _397
REMARK  163  A    between atoms: _397  and  _398
REMARK  164  A    between atoms: _397  and  _400
REMARK  165  A    between atoms: _400  and  _401
REMARK  166  A    between atoms: _404  and  _406
REMARK  167  A    between atoms: _406  and  _407
REMARK  168  A    between atoms: _410  and  _412
REMARK  169  A    between atoms: _412  and  _413
REMARK  170  A    between atoms: _412  and  _415
REMARK  171  A    between atoms: _415  and  _416
REMARK  172  A    between atoms: _416  and  _530
REMARK  173  A    between atoms: _417  and  _419
REMARK  174  A    between atoms: _419  and  _420
REMARK  175  A    between atoms: _419  and  _422
REMARK  176  A    between atoms: _422  and  _423
REMARK  177  A    between atoms: _423  and  _424
REMARK  178  A    between atoms: _424  and  _425
REMARK  179  A    between atoms: _425  and  _426
REMARK  180  A    between atoms: _430  and  _432
REMARK  181  A    between atoms: _432  and  _433
REMARK  182  A    between atoms: _435  and  _437
REMARK  183  A    between atoms: _437  and  _438
REMARK  184  A    between atoms: _437  and  _440
REMARK  185  A    between atoms: _440  and  _441
REMARK  186  A    between atoms: _444  and  _446
REMARK  187  A    between atoms: _446  and  _447
REMARK  188  A    between atoms: _446  and  _449
REMARK  189  A    between atoms: _449  and  _450
REMARK  190  A    between atoms: _452  and  _454
REMARK  191  A    between atoms: _454  and  _455
REMARK  192  A    between atoms: _457  and  _459
REMARK  193  A    between atoms: _459  and  _460
REMARK  194  A    between atoms: _462  and  _464
REMARK  195  A    between atoms: _464  and  _465
REMARK  196  A    between atoms: _464  and  _467
REMARK  197  A    between atoms: _467  and  _468
REMARK  198  A    between atoms: _471  and  _473
REMARK  199  A    between atoms: _473  and  _474
REMARK  200  A    between atoms: _473  and  _476
REMARK  201  A    between atoms: _476  and  _477
REMARK  202  A    between atoms: _480  and  _482
REMARK  203  A    between atoms: _482  and  _483
REMARK  204  A    between atoms: _482  and  _485
REMARK  205  A    between atoms: _485  and  _486
REMARK  206  A    between atoms: _488  and  _490
REMARK  207  A    between atoms: _490  and  _491
REMARK  208  A    between atoms: _490  and  _493
REMARK  209  A    between atoms: _493  and  _494
REMARK  210  A    between atoms: _504  and  _506
REMARK  211  A    between atoms: _506  and  _507
REMARK  212  A    between atoms: _509  and  _511
REMARK  213  A    between atoms: _511  and  _512
REMARK  214  A    between atoms: _511  and  _514
REMARK  215  A    between atoms: _514  and  _515
REMARK  216  A    between atoms: _515  and  _516
REMARK  217  A    between atoms: _519  and  _521
REMARK  218  A    between atoms: _521  and  _522
REMARK  219  A    between atoms: _524  and  _526
REMARK  220  A    between atoms: _526  and  _527
REMARK  221  A    between atoms: _526  and  _529
REMARK  222  A    between atoms: _529  and  _530
REMARK  223  A    between atoms: _531  and  _533
REMARK  224  A    between atoms: _533  and  _534
REMARK  225  A    between atoms: _537  and  _539
REMARK  226  A    between atoms: _539  and  _540
REMARK  227  A    between atoms: _539  and  _542
REMARK  228  A    between atoms: _542  and  _543
REMARK  229  A    between atoms: _543  and  _544
REMARK  230  A    between atoms: _549  and  _551
REMARK  231  A    between atoms: _551  and  _552
REMARK  232  A    between atoms: _551  and  _554
REMARK  233  A    between atoms: _554  and  _555
REMARK  234  A    between atoms: _555  and  _556
REMARK  235  A    between atoms: _556  and  _557
REMARK  236  A    between atoms: _567  and  _568
REMARK  237  A    between atoms: _573  and  _575
REMARK  238  A    between atoms: _575  and  _576
REMARK  239  A    between atoms: _578  and  _580
REMARK  240  A    between atoms: _580  and  _581
REMARK  241  A    between atoms: _580  and  _583
REMARK  242  A    between atoms: _586  and  _588
REMARK  243  A    between atoms: _588  and  _589
REMARK  244  A    between atoms: _588  and  _591
REMARK  245  A    between atoms: _591  and  _592
REMARK  246  A    between atoms: _597  and  _598
REMARK  247  A    between atoms: _600  and  _602
REMARK  248  A    between atoms: _602  and  _603
REMARK  249  A    between atoms: _602  and  _605
REMARK  250  A    between atoms: _605  and  _606
REMARK                            x       y       z     vdW  Elec       q    Type
REMARK                         _______ _______ _______ _____ _____    ______ ____
ROOT
ATOM      1  O   HOH     1      14.887  16.950 -30.549  0.00  0.00    +0.000 OA
ENDROOT
TORSDOF 0
REMARK  Name = ../refined-set-2016/4x6p/4x6p_pocket.pdb
REMARK  250 active torsions:
REMARK  status: ('A' for Active; 'I' for Inactive)
REMARK    1  A    between atoms: _1  and  _5
REMARK    2  A    between atoms: _5  and  _6
REMARK    3  A    between atoms: _5  and  _8
REMARK    4  A    between atoms: _8  and  _9
REMARK    5  A    between atoms: _12  and  _14
REMARK    6  A    between atoms: _14  and  _15
REMARK    7  A    between atoms: _14  and  _17
REMARK    8  A    between atoms: _20  and  _22
REMARK    9  A    between atoms: _22  and  _23
REMARK   10  A    between atoms: _22  and  _25
REMARK   11  A    between atoms: _25  and  _26
REMARK   12  A    between atoms: _29  and  _31
REMARK   13  A    between atoms: _31  and  _32
REMARK   14  A    between atoms: _31  and  _34
REMARK   15  A    between atoms: _34  and  _35
REMARK   16  A    between atoms: _38  and  _40
REMARK   17  A    between atoms: _40  and  _41
REMARK   18  A    between atoms: _40  and  _43
REMARK   19  A    between atoms: _43  and  _44
REMARK   20  A    between atoms: _49  and  _51
REMARK   21  A    between atoms: _51  and  _52
REMARK   22  A    between atoms: _51  and  _54
REMARK   23  A    between atoms: _54  and  _55
REMARK   24  A    between atoms: _58  and  _60
REMARK   25  A    between atoms: _60  and  _61
REMARK   26  A    between atoms: _60  and  _63
REMARK   27  A    between atoms: _63  and  _64
REMARK   28  A    between atoms: _64  and  _65
REMARK   29  A    between atoms: _70  and  _72
REMARK   30  A    between atoms: _72  and  _73
REMARK   31  A    between atoms: _72  and  _75
REMARK   32  A    between atoms: _75  and  _76
REMARK   33  A    between atoms: _76  and  _77
REMARK   34  A    between atoms: _77  and  _78
REMARK   35  A    between atoms: _87  and  _89
REMARK   36  A    between atoms: _89  and  _90
REMARK   37  A    between atoms: _89  and  _92
REMARK   38  A    between atoms: _92  and  _93
REMARK   39  A    between atoms: _98  and  _100
REMARK   40  A    between atoms: _100  and  _101
REMARK   41  A    between atoms: _100  and  _103
REMARK   42  A    between atoms: _103  and  _104
REMARK   43  A    between atoms: _107  and  _109
REMARK   44  A    between atoms: _109  and  _110
REMARK   45  A    between atoms: _109  and  _112
REMARK   46  A    between atoms: _112  and  _113
REMARK   47  A    between atoms: _113  and  _148
REMARK   48  A    between atoms: _114  and  _116
REMARK   49  A    between atoms: _116  and  _117
REMARK   50  A    between atoms: _119  and  _121
REMARK   51  A    between atoms: _121  and  _122
REMARK   52  A    between atoms: _125  and  _127
REMARK   53  A    between atoms: _127  and  _128
REMARK   54  A    between atoms: _131  and  _133
REMARK   55  A    between atoms: _133  and  _134
REMARK   56  A    between atoms: _133  and  _136
REMARK   57  A    between atoms: _136  and  _137
REMARK   58  A    between atoms: _142  and  _144
REMARK   59  A    between atoms: _144  and  _145
REMARK   60  A    between atoms: _144  and  _147
REMARK   61  A    between atoms: _147  and  _148
REMARK   62  A    between atoms: _149  and  _151
REMARK   63  A    between atoms: _151  and  _152
REMARK   64  A    between atoms: _151  and  _154
REMARK   65  A    between atoms: _154  and  _155
REMARK   66  A    between atoms: _161  and  _163
REMARK   67  A    between atoms: _163  and  _164
REMARK   68  A    between atoms: _163  and  _166
REMARK   69  A    between atoms: _166  and  _167
REMARK   70  A    between atoms: _172  and  _173
REMARK   71  A    between atoms: _175  and  _177
REMARK   72  A    between atoms: _177  and  _178
REMARK   73  A    between atoms: _180  and  _182
REMARK   74  A    between atoms: _182  and  _183
REMARK   75  A    between atoms: _182  and  _185
REMARK   76  A    between atoms: _188  and  _190
REMARK   77  A    between atoms: _190  and  _191
REMARK   78  A    between atoms: _190  and  _193
REMARK   79  A    between atoms: _193  and  _194
REMARK   80  A    between atoms: _194  and  _195
REMARK   81  A    between atoms: _200  and  _202
REMARK   82  A    between atoms: _202  and  _203
REMARK   83  A    between atoms: _202  and  _205
REMARK   84  A    between atoms: _205  and  _206
REMARK   85  A    between atoms: _211  and  _212
REMARK   86  A    between atoms: _214  and  _216
REMARK   87  A    between atoms: _216  and  _217
REMARK   88  A    between atoms: _220  and  _222
REMARK   89  A    between atoms: _222  and  _223
REMARK   90  A    between atoms: _222  and  _225
REMARK   91  A    between atoms: _225  and  _226
REMARK   92  A    between atoms: _229  and  _231
REMARK   93  A    between atoms: _231  and  _232
REMARK   94  A    between atoms: _231  and  _234
REMARK   95  A    between atoms: _237  and  _239
REMARK   96  A    between atoms: _239  and  _240
REMARK   97  A    between atoms: _239  and  _242
REMARK   98  A    between atoms: _242  and  _243
REMARK   99  A    between atoms: _253  and  _255
REMARK  100  A    between atoms: _255  and  _256
REMARK  101  A    between atoms: _258  and  _260
REMARK  102  A    between atoms: _260  and  _261
REMARK  103  A    between atoms: _260  and  _263
REMARK  104  A    between atoms: _263  and  _264
REMARK  105  A    between atoms: _269  and  _270
REMARK  106  A    between atoms: _272  and  _274
REMARK  107  A    between atoms: _274  and  _275
REMARK  108  A    between atoms: _274  and  _277
REMARK  109  A    between atoms: _277  and  _278
REMARK  110  A    between atoms: _278  and  _279
REMARK  111  A    between atoms: _279  and  _280
REMARK  112  A    between atoms: _280  and  _281
REMARK  113  A    between atoms: _285  and  _287
REMARK  114  A    between atoms: _287  and  _288
REMARK  115  A    between atoms: _287  and  _290
REMARK  116  A    between atoms: _290  and  _291
REMARK  117  A    between atoms: _294  and  _296
REMARK  118  A    between atoms: _296  and  _297
REMARK  119  A    between atoms: _296  and  _299
REMARK  120  A    between atoms: _299  and  _300
REMARK  121  A    between atoms: _303  and  _305
REMARK  122  A    between atoms: _305  and  _306
REMARK  123  A    between atoms: _305  and  _308
REMARK  124  A    between atoms: _308  and  _309
REMARK  125  A    between atoms: _309  and  _310
REMARK  126  A    between atoms: _310  and  _311
REMARK  127  A    between atoms: _311  and  _312
REMARK  128  A    between atoms: _316  and  _318
REMARK  129  A    between atoms: _318  and  _319
REMARK  130  A    between atoms: _318  and  _321
REMARK  131  A    between atoms: _321  and  _322
REMARK  132  A    between atoms: _325  and  _327
REMARK  133  A    between atoms: _327  and  _328
REMARK  134  A    between atoms: _327  and  _330
REMARK  135  A    between atoms: _330  and  _331
REMARK  136  A    between atoms: _331  and  _332
REMARK  137  A    between atoms: _337  and  _339
REMARK  138  A    between atoms: _339  and  _340
REMARK  139  A    between atoms: _339  and  _342
REMARK  140  A    between atoms: _342  and  _343
REMARK  141  A    between atoms: _346  and  _348
REMARK  142  A    between atoms: _348  and  _349
REMARK  143  A    between atoms: _348  and  _351
REMARK  144  A    between atoms: _351  and  _352
REMARK  145  A    between atoms: _357  and  _358
REMARK  146  A    between atoms: _360  and  _362
REMARK  147  A    between atoms: _362  and  _363
REMARK  148  A    between atoms: _362  and  _365
REMARK  149  A    between atoms: _365  and  _366
REMARK  150  A    between atoms: _369  and  _371
REMARK  151  A    between atoms: _371  and  _372
REMARK  152  A    between atoms: _371  and  _374
REMARK  153  A    between atoms: _376  and  _378
REMARK  154  A    between atoms: _378  and  _379
REMARK  155  A    between atoms: _382  and  _384
REMARK  156  A    between atoms: _384  and  _385
REMARK  157  A    between atoms: _384  and  _387
REMARK  158  A    between atoms: _387  and  _388
REMARK  159  A    between atoms: _388  and  _389
REMARK  160  A    between atoms: _389  and  _390
REMARK  161  A    between atoms: _390  and  _391
REMARK  162  A    between atoms: _395  and  _397
REMARK  163  A    between atoms: _397  and  _398
REMARK  164  A    between atoms: _397  and  _400
REMARK  165  A    between atoms: _400  and  _401
REMARK  166  A    between atoms: _404  and  _406
REMARK  167  A    between atoms: _406  and  _407
REMARK  168  A    between atoms: _410  and  _412
REMARK  169  A    between atoms: _412  and  _413
REMARK  170  A    between atoms: _412  and  _415
REMARK  171  A    between atoms: _415  and  _416
REMARK  172  A    between atoms: _416  and  _530
REMARK  173  A    between atoms: _417  and  _419
REMARK  174  A    between atoms: _419  and  _420
REMARK  175  A    between atoms: _419  and  _422
REMARK  176  A    between atoms: _422  and  _423
REMARK  177  A    between atoms: _423  and  _424
REMARK  178  A    between atoms: _424  and  _425
REMARK  179  A    between atoms: _425  and  _426
REMARK  180  A    between atoms: _430  and  _432
REMARK  181  A    between atoms: _432  and  _433
REMARK  182  A    between atoms: _435  and  _437
REMARK  183  A    between atoms: _437  and  _438
REMARK  184  A    between atoms: _437  and  _440
REMARK  185  A    between atoms: _440  and  _441
REMARK  186  A    between atoms: _444  and  _446
REMARK  187  A    between atoms: _446  and  _447
REMARK  188  A    between atoms: _446  and  _449
REMARK  189  A    between atoms: _449  and  _450
REMARK  190  A    between atoms: _452  and  _454
REMARK  191  A    between atoms: _454  and  _455
REMARK  192  A    between atoms: _457  and  _459
REMARK  193  A    between atoms: _459  and  _460
REMARK  194  A    between atoms: _462  and  _464
REMARK  195  A    between atoms: _464  and  _465
REMARK  196  A    between atoms: _464  and  _467
REMARK  197  A    between atoms: _467  and  _468
REMARK  198  A    between atoms: _471  and  _473
REMARK  199  A    between atoms: _473  and  _474
REMARK  200  A    between atoms: _473  and  _476
REMARK  201  A    between atoms: _476  and  _477
REMARK  202  A    between atoms: _480  and  _482
REMARK  203  A    between atoms: _482  and  _483
REMARK  204  A    between atoms: _482  and  _485
REMARK  205  A    between atoms: _485  and  _486
REMARK  206  A    between atoms: _488  and  _490
REMARK  207  A    between atoms: _490  and  _491
REMARK  208  A    between atoms: _490  and  _493
REMARK  209  A    between atoms: _493  and  _494
REMARK  210  A    between atoms: _504  and  _506
REMARK  211  A    between atoms: _506  and  _507
REMARK  212  A    between atoms: _509  and  _511
REMARK  213  A    between atoms: _511  and  _512
REMARK  214  A    between atoms: _511  and  _514
REMARK  215  A    between atoms: _514  and  _515
REMARK  216  A    between atoms: _515  and  _516
REMARK  217  A    between atoms: _519  and  _521
REMARK  218  A    between atoms: _521  and  _522
REMARK  219  A    between atoms: _524  and  _526
REMARK  220  A    between atoms: _526  and  _527
REMARK  221  A    between atoms: _526  and  _529
REMARK  222  A    between atoms: _529  and  _530
REMARK  223  A    between atoms: _531  and  _533
REMARK  224  A    between atoms: _533  and  _534
REMARK  225  A    between atoms: _537  and  _539
REMARK  226  A    between atoms: _539  and  _540
REMARK  227  A    between atoms: _539  and  _542
REMARK  228  A    between atoms: _542  and  _543
REMARK  229  A    between atoms: _543  and  _544
REMARK  230  A    between atoms: _549  and  _551
REMARK  231  A    between atoms: _551  and  _552
REMARK  232  A    between atoms: _551  and  _554
REMARK  233  A    between atoms: _554  and  _555
REMARK  234  A    between atoms: _555  and  _556
REMARK  235  A    between atoms: _556  and  _557
REMARK  236  A    between atoms: _567  and  _568
REMARK  237  A    between atoms: _573  and  _575
REMARK  238  A    between atoms: _575  and  _576
REMARK  239  A    between atoms: _578  and  _580
REMARK  240  A    between atoms: _580  and  _581
REMARK  241  A    between atoms: _580  and  _583
REMARK  242  A    between atoms: _586  and  _588
REMARK  243  A    between atoms: _588  and  _589
REMARK  244  A    between atoms: _588  and  _591
REMARK  245  A    between atoms: _591  and  _592
REMARK  246  A    between atoms: _597  and  _598
REMARK  247  A    between atoms: _600  and  _602
REMARK  248  A    between atoms: _602  and  _603
REMARK  249  A    between atoms: _602  and  _605
REMARK  250  A    between atoms: _605  and  _606
REMARK                            x       y       z     vdW  Elec       q    Type
REMARK                         _______ _______ _______ _____ _____    ______ ____
ROOT
ATOM      1  O   HOH     1      18.295  17.574 -30.677  0.00  0.00    +0.000 OA
ENDROOT
TORSDOF 0
REMARK  Name = ../refined-set-2016/4x6p/4x6p_pocket.pdb
REMARK  250 active torsions:
REMARK  status: ('A' for Active; 'I' for Inactive)
REMARK    1  A    between atoms: _1  and  _5
REMARK    2  A    between atoms: _5  and  _6
REMARK    3  A    between atoms: _5  and  _8
REMARK    4  A    between atoms: _8  and  _9
REMARK    5  A    between atoms: _12  and  _14
REMARK    6  A    between atoms: _14  and  _15
REMARK    7  A    between atoms: _14  and  _17
REMARK    8  A    between atoms: _20  and  _22
REMARK    9  A    between atoms: _22  and  _23
REMARK   10  A    between atoms: _22  and  _25
REMARK   11  A    between atoms: _25  and  _26
REMARK   12  A    between atoms: _29  and  _31
REMARK   13  A    between atoms: _31  and  _32
REMARK   14  A    between atoms: _31  and  _34
REMARK   15  A    between atoms: _34  and  _35
REMARK   16  A    between atoms: _38  and  _40
REMARK   17  A    between atoms: _40  and  _41
REMARK   18  A    between atoms: _40  and  _43
REMARK   19  A    between atoms: _43  and  _44
REMARK   20  A    between atoms: _49  and  _51
REMARK   21  A    between atoms: _51  and  _52
REMARK   22  A    between atoms: _51  and  _54
REMARK   23  A    between atoms: _54  and  _55
REMARK   24  A    between atoms: _58  and  _60
REMARK   25  A    between atoms: _60  and  _61
REMARK   26  A    between atoms: _60  and  _63
REMARK   27  A    between atoms: _63  and  _64
REMARK   28  A    between atoms: _64  and  _65
REMARK   29  A    between atoms: _70  and  _72
REMARK   30  A    between atoms: _72  and  _73
REMARK   31  A    between atoms: _72  and  _75
REMARK   32  A    between atoms: _75  and  _76
REMARK   33  A    between atoms: _76  and  _77
REMARK   34  A    between atoms: _77  and  _78
REMARK   35  A    between atoms: _87  and  _89
REMARK   36  A    between atoms: _89  and  _90
REMARK   37  A    between atoms: _89  and  _92
REMARK   38  A    between atoms: _92  and  _93
REMARK   39  A    between atoms: _98  and  _100
REMARK   40  A    between atoms: _100  and  _101
REMARK   41  A    between atoms: _100  and  _103
REMARK   42  A    between atoms: _103  and  _104
REMARK   43  A    between atoms: _107  and  _109
REMARK   44  A    between atoms: _109  and  _110
REMARK   45  A    between atoms: _109  and  _112
REMARK   46  A    between atoms: _112  and  _113
REMARK   47  A    between atoms: _113  and  _148
REMARK   48  A    between atoms: _114  and  _116
REMARK   49  A    between atoms: _116  and  _117
REMARK   50  A    between atoms: _119  and  _121
REMARK   51  A    between atoms: _121  and  _122
REMARK   52  A    between atoms: _125  and  _127
REMARK   53  A    between atoms: _127  and  _128
REMARK   54  A    between atoms: _131  and  _133
REMARK   55  A    between atoms: _133  and  _134
REMARK   56  A    between atoms: _133  and  _136
REMARK   57  A    between atoms: _136  and  _137
REMARK   58  A    between atoms: _142  and  _144
REMARK   59  A    between atoms: _144  and  _145
REMARK   60  A    between atoms: _144  and  _147
REMARK   61  A    between atoms: _147  and  _148
REMARK   62  A    between atoms: _149  and  _151
REMARK   63  A    between atoms: _151  and  _152
REMARK   64  A    between atoms: _151  and  _154
REMARK   65  A    between atoms: _154  and  _155
REMARK   66  A    between atoms: _161  and  _163
REMARK   67  A    between atoms: _163  and  _164
REMARK   68  A    between atoms: _163  and  _166
REMARK   69  A    between atoms: _166  and  _167
REMARK   70  A    between atoms: _172  and  _173
REMARK   71  A    between atoms: _175  and  _177
REMARK   72  A    between atoms: _177  and  _178
REMARK   73  A    between atoms: _180  and  _182
REMARK   74  A    between atoms: _182  and  _183
REMARK   75  A    between atoms: _182  and  _185
REMARK   76  A    between atoms: _188  and  _190
REMARK   77  A    between atoms: _190  and  _191
REMARK   78  A    between atoms: _190  and  _193
REMARK   79  A    between atoms: _193  and  _194
REMARK   80  A    between atoms: _194  and  _195
REMARK   81  A    between atoms: _200  and  _202
REMARK   82  A    between atoms: _202  and  _203
REMARK   83  A    between atoms: _202  and  _205
REMARK   84  A    between atoms: _205  and  _206
REMARK   85  A    between atoms: _211  and  _212
REMARK   86  A    between atoms: _214  and  _216
REMARK   87  A    between atoms: _216  and  _217
REMARK   88  A    between atoms: _220  and  _222
REMARK   89  A    between atoms: _222  and  _223
REMARK   90  A    between atoms: _222  and  _225
REMARK   91  A    between atoms: _225  and  _226
REMARK   92  A    between atoms: _229  and  _231
REMARK   93  A    between atoms: _231  and  _232
REMARK   94  A    between atoms: _231  and  _234
REMARK   95  A    between atoms: _237  and  _239
REMARK   96  A    between atoms: _239  and  _240
REMARK   97  A    between atoms: _239  and  _242
REMARK   98  A    between atoms: _242  and  _243
REMARK   99  A    between atoms: _253  and  _255
REMARK  100  A    between atoms: _255  and  _256
REMARK  101  A    between atoms: _258  and  _260
REMARK  102  A    between atoms: _260  and  _261
REMARK  103  A    between atoms: _260  and  _263
REMARK  104  A    between atoms: _263  and  _264
REMARK  105  A    between atoms: _269  and  _270
REMARK  106  A    between atoms: _272  and  _274
REMARK  107  A    between atoms: _274  and  _275
REMARK  108  A    between atoms: _274  and  _277
REMARK  109  A    between atoms: _277  and  _278
REMARK  110  A    between atoms: _278  and  _279
REMARK  111  A    between atoms: _279  and  _280
REMARK  112  A    between atoms: _280  and  _281
REMARK  113  A    between atoms: _285  and  _287
REMARK  114  A    between atoms: _287  and  _288
REMARK  115  A    between atoms: _287  and  _290
REMARK  116  A    between atoms: _290  and  _291
REMARK  117  A    between atoms: _294  and  _296
REMARK  118  A    between atoms: _296  and  _297
REMARK  119  A    between atoms: _296  and  _299
REMARK  120  A    between atoms: _299  and  _300
REMARK  121  A    between atoms: _303  and  _305
REMARK  122  A    between atoms: _305  and  _306
REMARK  123  A    between atoms: _305  and  _308
REMARK  124  A    between atoms: _308  and  _309
REMARK  125  A    between atoms: _309  and  _310
REMARK  126  A    between atoms: _310  and  _311
REMARK  127  A    between atoms: _311  and  _312
REMARK  128  A    between atoms: _316  and  _318
REMARK  129  A    between atoms: _318  and  _319
REMARK  130  A    between atoms: _318  and  _321
REMARK  131  A    between atoms: _321  and  _322
REMARK  132  A    between atoms: _325  and  _327
REMARK  133  A    between atoms: _327  and  _328
REMARK  134  A    between atoms: _327  and  _330
REMARK  135  A    between atoms: _330  and  _331
REMARK  136  A    between atoms: _331  and  _332
REMARK  137  A    between atoms: _337  and  _339
REMARK  138  A    between atoms: _339  and  _340
REMARK  139  A    between atoms: _339  and  _342
REMARK  140  A    between atoms: _342  and  _343
REMARK  141  A    between atoms: _346  and  _348
REMARK  142  A    between atoms: _348  and  _349
REMARK  143  A    between atoms: _348  and  _351
REMARK  144  A    between atoms: _351  and  _352
REMARK  145  A    between atoms: _357  and  _358
REMARK  146  A    between atoms: _360  and  _362
REMARK  147  A    between atoms: _362  and  _363
REMARK  148  A    between atoms: _362  and  _365
REMARK  149  A    between atoms: _365  and  _366
REMARK  150  A    between atoms: _369  and  _371
REMARK  151  A    between atoms: _371  and  _372
REMARK  152  A    between atoms: _371  and  _374
REMARK  153  A    between atoms: _376  and  _378
REMARK  154  A    between atoms: _378  and  _379
REMARK  155  A    between atoms: _382  and  _384
REMARK  156  A    between atoms: _384  and  _385
REMARK  157  A    between atoms: _384  and  _387
REMARK  158  A    between atoms: _387  and  _388
REMARK  159  A    between atoms: _388  and  _389
REMARK  160  A    between atoms: _389  and  _390
REMARK  161  A    between atoms: _390  and  _391
REMARK  162  A    between atoms: _395  and  _397
REMARK  163  A    between atoms: _397  and  _398
REMARK  164  A    between atoms: _397  and  _400
REMARK  165  A    between atoms: _400  and  _401
REMARK  166  A    between atoms: _404  and  _406
REMARK  167  A    between atoms: _406  and  _407
REMARK  168  A    between atoms: _410  and  _412
REMARK  169  A    between atoms: _412  and  _413
REMARK  170  A    between atoms: _412  and  _415
REMARK  171  A    between atoms: _415  and  _416
REMARK  172  A    between atoms: _416  and  _530
REMARK  173  A    between atoms: _417  and  _419
REMARK  174  A    between atoms: _419  and  _420
REMARK  175  A    between atoms: _419  and  _422
REMARK  176  A    between atoms: _422  and  _423
REMARK  177  A    between atoms: _423  and  _424
REMARK  178  A    between atoms: _424  and  _425
REMARK  179  A    between atoms: _425  and  _426
REMARK  180  A    between atoms: _430  and  _432
REMARK  181  A    between atoms: _432  and  _433
REMARK  182  A    between atoms: _435  and  _437
REMARK  183  A    between atoms: _437  and  _438
REMARK  184  A    between atoms: _437  and  _440
REMARK  185  A    between atoms: _440  and  _441
REMARK  186  A    between atoms: _444  and  _446
REMARK  187  A    between atoms: _446  and  _447
REMARK  188  A    between atoms: _446  and  _449
REMARK  189  A    between atoms: _449  and  _450
REMARK  190  A    between atoms: _452  and  _454
REMARK  191  A    between atoms: _454  and  _455
REMARK  192  A    between atoms: _457  and  _459
REMARK  193  A    between atoms: _459  and  _460
REMARK  194  A    between atoms: _462  and  _464
REMARK  195  A    between atoms: _464  and  _465
REMARK  196  A    between atoms: _464  and  _467
REMARK  197  A    between atoms: _467  and  _468
REMARK  198  A    between atoms: _471  and  _473
REMARK  199  A    between atoms: _473  and  _474
REMARK  200  A    between atoms: _473  and  _476
REMARK  201  A    between atoms: _476  and  _477
REMARK  202  A    between atoms: _480  and  _482
REMARK  203  A    between atoms: _482  and  _483
REMARK  204  A    between atoms: _482  and  _485
REMARK  205  A    between atoms: _485  and  _486
REMARK  206  A    between atoms: _488  and  _490
REMARK  207  A    between atoms: _490  and  _491
REMARK  208  A    between atoms: _490  and  _493
REMARK  209  A    between atoms: _493  and  _494
REMARK  210  A    between atoms: _504  and  _506
REMARK  211  A    between atoms: _506  and  _507
REMARK  212  A    between atoms: _509  and  _511
REMARK  213  A    between atoms: _511  and  _512
REMARK  214  A    between atoms: _511  and  _514
REMARK  215  A    between atoms: _514  and  _515
REMARK  216  A    between atoms: _515  and  _516
REMARK  217  A    between atoms: _519  and  _521
REMARK  218  A    between atoms: _521  and  _522
REMARK  219  A    between atoms: _524  and  _526
REMARK  220  A    between atoms: _526  and  _527
REMARK  221  A    between atoms: _526  and  _529
REMARK  222  A    between atoms: _529  and  _530
REMARK  223  A    between atoms: _531  and  _533
REMARK  224  A    between atoms: _533  and  _534
REMARK  225  A    between atoms: _537  and  _539
REMARK  226  A    between atoms: _539  and  _540
REMARK  227  A    between atoms: _539  and  _542
REMARK  228  A    between atoms: _542  and  _543
REMARK  229  A    between atoms: _543  and  _544
REMARK  230  A    between atoms: _549  and  _551
REMARK  231  A    between atoms: _551  and  _552
REMARK  232  A    between atoms: _551  and  _554
REMARK  233  A    between atoms: _554  and  _555
REMARK  234  A    between atoms: _555  and  _556
REMARK  235  A    between atoms: _556  and  _557
REMARK  236  A    between atoms: _567  and  _568
REMARK  237  A    between atoms: _573  and  _575
REMARK  238  A    between atoms: _575  and  _576
REMARK  239  A    between atoms: _578  and  _580
REMARK  240  A    between atoms: _580  and  _581
REMARK  241  A    between atoms: _580  and  _583
REMARK  242  A    between atoms: _586  and  _588
REMARK  243  A    between atoms: _588  and  _589
REMARK  244  A    between atoms: _588  and  _591
REMARK  245  A    between atoms: _591  and  _592
REMARK  246  A    between atoms: _597  and  _598
REMARK  247  A    between atoms: _600  and  _602
REMARK  248  A    between atoms: _602  and  _603
REMARK  249  A    between atoms: _602  and  _605
REMARK  250  A    between atoms: _605  and  _606
REMARK                            x       y       z     vdW  Elec       q    Type
REMARK                         _______ _______ _______ _____ _____    ______ ____
ROOT
ATOM      1  O   HOH     1      17.303  20.215 -42.955  0.00  0.00    +0.000 OA
ENDROOT
TORSDOF 0
REMARK  Name = ../refined-set-2016/4x6p/4x6p_pocket.pdb
REMARK  250 active torsions:
REMARK  status: ('A' for Active; 'I' for Inactive)
REMARK    1  A    between atoms: _1  and  _5
REMARK    2  A    between atoms: _5  and  _6
REMARK    3  A    between atoms: _5  and  _8
REMARK    4  A    between atoms: _8  and  _9
REMARK    5  A    between atoms: _12  and  _14
REMARK    6  A    between atoms: _14  and  _15
REMARK    7  A    between atoms: _14  and  _17
REMARK    8  A    between atoms: _20  and  _22
REMARK    9  A    between atoms: _22  and  _23
REMARK   10  A    between atoms: _22  and  _25
REMARK   11  A    between atoms: _25  and  _26
REMARK   12  A    between atoms: _29  and  _31
REMARK   13  A    between atoms: _31  and  _32
REMARK   14  A    between atoms: _31  and  _34
REMARK   15  A    between atoms: _34  and  _35
REMARK   16  A    between atoms: _38  and  _40
REMARK   17  A    between atoms: _40  and  _41
REMARK   18  A    between atoms: _40  and  _43
REMARK   19  A    between atoms: _43  and  _44
REMARK   20  A    between atoms: _49  and  _51
REMARK   21  A    between atoms: _51  and  _52
REMARK   22  A    between atoms: _51  and  _54
REMARK   23  A    between atoms: _54  and  _55
REMARK   24  A    between atoms: _58  and  _60
REMARK   25  A    between atoms: _60  and  _61
REMARK   26  A    between atoms: _60  and  _63
REMARK   27  A    between atoms: _63  and  _64
REMARK   28  A    between atoms: _64  and  _65
REMARK   29  A    between atoms: _70  and  _72
REMARK   30  A    between atoms: _72  and  _73
REMARK   31  A    between atoms: _72  and  _75
REMARK   32  A    between atoms: _75  and  _76
REMARK   33  A    between atoms: _76  and  _77
REMARK   34  A    between atoms: _77  and  _78
REMARK   35  A    between atoms: _87  and  _89
REMARK   36  A    between atoms: _89  and  _90
REMARK   37  A    between atoms: _89  and  _92
REMARK   38  A    between atoms: _92  and  _93
REMARK   39  A    between atoms: _98  and  _100
REMARK   40  A    between atoms: _100  and  _101
REMARK   41  A    between atoms: _100  and  _103
REMARK   42  A    between atoms: _103  and  _104
REMARK   43  A    between atoms: _107  and  _109
REMARK   44  A    between atoms: _109  and  _110
REMARK   45  A    between atoms: _109  and  _112
REMARK   46  A    between atoms: _112  and  _113
REMARK   47  A    between atoms: _113  and  _148
REMARK   48  A    between atoms: _114  and  _116
REMARK   49  A    between atoms: _116  and  _117
REMARK   50  A    between atoms: _119  and  _121
REMARK   51  A    between atoms: _121  and  _122
REMARK   52  A    between atoms: _125  and  _127
REMARK   53  A    between atoms: _127  and  _128
REMARK   54  A    between atoms: _131  and  _133
REMARK   55  A    between atoms: _133  and  _134
REMARK   56  A    between atoms: _133  and  _136
REMARK   57  A    between atoms: _136  and  _137
REMARK   58  A    between atoms: _142  and  _144
REMARK   59  A    between atoms: _144  and  _145
REMARK   60  A    between atoms: _144  and  _147
REMARK   61  A    between atoms: _147  and  _148
REMARK   62  A    between atoms: _149  and  _151
REMARK   63  A    between atoms: _151  and  _152
REMARK   64  A    between atoms: _151  and  _154
REMARK   65  A    between atoms: _154  and  _155
REMARK   66  A    between atoms: _161  and  _163
REMARK   67  A    between atoms: _163  and  _164
REMARK   68  A    between atoms: _163  and  _166
REMARK   69  A    between atoms: _166  and  _167
REMARK   70  A    between atoms: _172  and  _173
REMARK   71  A    between atoms: _175  and  _177
REMARK   72  A    between atoms: _177  and  _178
REMARK   73  A    between atoms: _180  and  _182
REMARK   74  A    between atoms: _182  and  _183
REMARK   75  A    between atoms: _182  and  _185
REMARK   76  A    between atoms: _188  and  _190
REMARK   77  A    between atoms: _190  and  _191
REMARK   78  A    between atoms: _190  and  _193
REMARK   79  A    between atoms: _193  and  _194
REMARK   80  A    between atoms: _194  and  _195
REMARK   81  A    between atoms: _200  and  _202
REMARK   82  A    between atoms: _202  and  _203
REMARK   83  A    between atoms: _202  and  _205
REMARK   84  A    between atoms: _205  and  _206
REMARK   85  A    between atoms: _211  and  _212
REMARK   86  A    between atoms: _214  and  _216
REMARK   87  A    between atoms: _216  and  _217
REMARK   88  A    between atoms: _220  and  _222
REMARK   89  A    between atoms: _222  and  _223
REMARK   90  A    between atoms: _222  and  _225
REMARK   91  A    between atoms: _225  and  _226
REMARK   92  A    between atoms: _229  and  _231
REMARK   93  A    between atoms: _231  and  _232
REMARK   94  A    between atoms: _231  and  _234
REMARK   95  A    between atoms: _237  and  _239
REMARK   96  A    between atoms: _239  and  _240
REMARK   97  A    between atoms: _239  and  _242
REMARK   98  A    between atoms: _242  and  _243
REMARK   99  A    between atoms: _253  and  _255
REMARK  100  A    between atoms: _255  and  _256
REMARK  101  A    between atoms: _258  and  _260
REMARK  102  A    between atoms: _260  and  _261
REMARK  103  A    between atoms: _260  and  _263
REMARK  104  A    between atoms: _263  and  _264
REMARK  105  A    between atoms: _269  and  _270
REMARK  106  A    between atoms: _272  and  _274
REMARK  107  A    between atoms: _274  and  _275
REMARK  108  A    between atoms: _274  and  _277
REMARK  109  A    between atoms: _277  and  _278
REMARK  110  A    between atoms: _278  and  _279
REMARK  111  A    between atoms: _279  and  _280
REMARK  112  A    between atoms: _280  and  _281
REMARK  113  A    between atoms: _285  and  _287
REMARK  114  A    between atoms: _287  and  _288
REMARK  115  A    between atoms: _287  and  _290
REMARK  116  A    between atoms: _290  and  _291
REMARK  117  A    between atoms: _294  and  _296
REMARK  118  A    between atoms: _296  and  _297
REMARK  119  A    between atoms: _296  and  _299
REMARK  120  A    between atoms: _299  and  _300
REMARK  121  A    between atoms: _303  and  _305
REMARK  122  A    between atoms: _305  and  _306
REMARK  123  A    between atoms: _305  and  _308
REMARK  124  A    between atoms: _308  and  _309
REMARK  125  A    between atoms: _309  and  _310
REMARK  126  A    between atoms: _310  and  _311
REMARK  127  A    between atoms: _311  and  _312
REMARK  128  A    between atoms: _316  and  _318
REMARK  129  A    between atoms: _318  and  _319
REMARK  130  A    between atoms: _318  and  _321
REMARK  131  A    between atoms: _321  and  _322
REMARK  132  A    between atoms: _325  and  _327
REMARK  133  A    between atoms: _327  and  _328
REMARK  134  A    between atoms: _327  and  _330
REMARK  135  A    between atoms: _330  and  _331
REMARK  136  A    between atoms: _331  and  _332
REMARK  137  A    between atoms: _337  and  _339
REMARK  138  A    between atoms: _339  and  _340
REMARK  139  A    between atoms: _339  and  _342
REMARK  140  A    between atoms: _342  and  _343
REMARK  141  A    between atoms: _346  and  _348
REMARK  142  A    between atoms: _348  and  _349
REMARK  143  A    between atoms: _348  and  _351
REMARK  144  A    between atoms: _351  and  _352
REMARK  145  A    between atoms: _357  and  _358
REMARK  146  A    between atoms: _360  and  _362
REMARK  147  A    between atoms: _362  and  _363
REMARK  148  A    between atoms: _362  and  _365
REMARK  149  A    between atoms: _365  and  _366
REMARK  150  A    between atoms: _369  and  _371
REMARK  151  A    between atoms: _371  and  _372
REMARK  152  A    between atoms: _371  and  _374
REMARK  153  A    between atoms: _376  and  _378
REMARK  154  A    between atoms: _378  and  _379
REMARK  155  A    between atoms: _382  and  _384
REMARK  156  A    between atoms: _384  and  _385
REMARK  157  A    between atoms: _384  and  _387
REMARK  158  A    between atoms: _387  and  _388
REMARK  159  A    between atoms: _388  and  _389
REMARK  160  A    between atoms: _389  and  _390
REMARK  161  A    between atoms: _390  and  _391
REMARK  162  A    between atoms: _395  and  _397
REMARK  163  A    between atoms: _397  and  _398
REMARK  164  A    between atoms: _397  and  _400
REMARK  165  A    between atoms: _400  and  _401
REMARK  166  A    between atoms: _404  and  _406
REMARK  167  A    between atoms: _406  and  _407
REMARK  168  A    between atoms: _410  and  _412
REMARK  169  A    between atoms: _412  and  _413
REMARK  170  A    between atoms: _412  and  _415
REMARK  171  A    between atoms: _415  and  _416
REMARK  172  A    between atoms: _416  and  _530
REMARK  173  A    between atoms: _417  and  _419
REMARK  174  A    between atoms: _419  and  _420
REMARK  175  A    between atoms: _419  and  _422
REMARK  176  A    between atoms: _422  and  _423
REMARK  177  A    between atoms: _423  and  _424
REMARK  178  A    between atoms: _424  and  _425
REMARK  179  A    between atoms: _425  and  _426
REMARK  180  A    between atoms: _430  and  _432
REMARK  181  A    between atoms: _432  and  _433
REMARK  182  A    between atoms: _435  and  _437
REMARK  183  A    between atoms: _437  and  _438
REMARK  184  A    between atoms: _437  and  _440
REMARK  185  A    between atoms: _440  and  _441
REMARK  186  A    between atoms: _444  and  _446
REMARK  187  A    between atoms: _446  and  _447
REMARK  188  A    between atoms: _446  and  _449
REMARK  189  A    between atoms: _449  and  _450
REMARK  190  A    between atoms: _452  and  _454
REMARK  191  A    between atoms: _454  and  _455
REMARK  192  A    between atoms: _457  and  _459
REMARK  193  A    between atoms: _459  and  _460
REMARK  194  A    between atoms: _462  and  _464
REMARK  195  A    between atoms: _464  and  _465
REMARK  196  A    between atoms: _464  and  _467
REMARK  197  A    between atoms: _467  and  _468
REMARK  198  A    between atoms: _471  and  _473
REMARK  199  A    between atoms: _473  and  _474
REMARK  200  A    between atoms: _473  and  _476
REMARK  201  A    between atoms: _476  and  _477
REMARK  202  A    between atoms: _480  and  _482
REMARK  203  A    between atoms: _482  and  _483
REMARK  204  A    between atoms: _482  and  _485
REMARK  205  A    between atoms: _485  and  _486
REMARK  206  A    between atoms: _488  and  _490
REMARK  207  A    between atoms: _490  and  _491
REMARK  208  A    between atoms: _490  and  _493
REMARK  209  A    between atoms: _493  and  _494
REMARK  210  A    between atoms: _504  and  _506
REMARK  211  A    between atoms: _506  and  _507
REMARK  212  A    between atoms: _509  and  _511
REMARK  213  A    between atoms: _511  and  _512
REMARK  214  A    between atoms: _511  and  _514
REMARK  215  A    between atoms: _514  and  _515
REMARK  216  A    between atoms: _515  and  _516
REMARK  217  A    between atoms: _519  and  _521
REMARK  218  A    between atoms: _521  and  _522
REMARK  219  A    between atoms: _524  and  _526
REMARK  220  A    between atoms: _526  and  _527
REMARK  221  A    between atoms: _526  and  _529
REMARK  222  A    between atoms: _529  and  _530
REMARK  223  A    between atoms: _531  and  _533
REMARK  224  A    between atoms: _533  and  _534
REMARK  225  A    between atoms: _537  and  _539
REMARK  226  A    between atoms: _539  and  _540
REMARK  227  A    between atoms: _539  and  _542
REMARK  228  A    between atoms: _542  and  _543
REMARK  229  A    between atoms: _543  and  _544
REMARK  230  A    between atoms: _549  and  _551
REMARK  231  A    between atoms: _551  and  _552
REMARK  232  A    between atoms: _551  and  _554
REMARK  233  A    between atoms: _554  and  _555
REMARK  234  A    between atoms: _555  and  _556
REMARK  235  A    between atoms: _556  and  _557
REMARK  236  A    between atoms: _567  and  _568
REMARK  237  A    between atoms: _573  and  _575
REMARK  238  A    between atoms: _575  and  _576
REMARK  239  A    between atoms: _578  and  _580
REMARK  240  A    between atoms: _580  and  _581
REMARK  241  A    between atoms: _580  and  _583
REMARK  242  A    between atoms: _586  and  _588
REMARK  243  A    between atoms: _588  and  _589
REMARK  244  A    between atoms: _588  and  _591
REMARK  245  A    between atoms: _591  and  _592
REMARK  246  A    between atoms: _597  and  _598
REMARK  247  A    between atoms: _600  and  _602
REMARK  248  A    between atoms: _602  and  _603
REMARK  249  A    between atoms: _602  and  _605
REMARK  250  A    between atoms: _605  and  _606
REMARK                            x       y       z     vdW  Elec       q    Type
REMARK                         _______ _______ _______ _____ _____    ______ ____
ROOT
ATOM      1  O   HOH     1      12.476  15.594 -31.148  0.00  0.00    +0.000 OA
ENDROOT
TORSDOF 0
REMARK  Name = ../refined-set-2016/4x6p/4x6p_pocket.pdb
REMARK  250 active torsions:
REMARK  status: ('A' for Active; 'I' for Inactive)
REMARK    1  A    between atoms: _1  and  _5
REMARK    2  A    between atoms: _5  and  _6
REMARK    3  A    between atoms: _5  and  _8
REMARK    4  A    between atoms: _8  and  _9
REMARK    5  A    between atoms: _12  and  _14
REMARK    6  A    between atoms: _14  and  _15
REMARK    7  A    between atoms: _14  and  _17
REMARK    8  A    between atoms: _20  and  _22
REMARK    9  A    between atoms: _22  and  _23
REMARK   10  A    between atoms: _22  and  _25
REMARK   11  A    between atoms: _25  and  _26
REMARK   12  A    between atoms: _29  and  _31
REMARK   13  A    between atoms: _31  and  _32
REMARK   14  A    between atoms: _31  and  _34
REMARK   15  A    between atoms: _34  and  _35
REMARK   16  A    between atoms: _38  and  _40
REMARK   17  A    between atoms: _40  and  _41
REMARK   18  A    between atoms: _40  and  _43
REMARK   19  A    between atoms: _43  and  _44
REMARK   20  A    between atoms: _49  and  _51
REMARK   21  A    between atoms: _51  and  _52
REMARK   22  A    between atoms: _51  and  _54
REMARK   23  A    between atoms: _54  and  _55
REMARK   24  A    between atoms: _58  and  _60
REMARK   25  A    between atoms: _60  and  _61
REMARK   26  A    between atoms: _60  and  _63
REMARK   27  A    between atoms: _63  and  _64
REMARK   28  A    between atoms: _64  and  _65
REMARK   29  A    between atoms: _70  and  _72
REMARK   30  A    between atoms: _72  and  _73
REMARK   31  A    between atoms: _72  and  _75
REMARK   32  A    between atoms: _75  and  _76
REMARK   33  A    between atoms: _76  and  _77
REMARK   34  A    between atoms: _77  and  _78
REMARK   35  A    between atoms: _87  and  _89
REMARK   36  A    between atoms: _89  and  _90
REMARK   37  A    between atoms: _89  and  _92
REMARK   38  A    between atoms: _92  and  _93
REMARK   39  A    between atoms: _98  and  _100
REMARK   40  A    between atoms: _100  and  _101
REMARK   41  A    between atoms: _100  and  _103
REMARK   42  A    between atoms: _103  and  _104
REMARK   43  A    between atoms: _107  and  _109
REMARK   44  A    between atoms: _109  and  _110
REMARK   45  A    between atoms: _109  and  _112
REMARK   46  A    between atoms: _112  and  _113
REMARK   47  A    between atoms: _113  and  _148
REMARK   48  A    between atoms: _114  and  _116
REMARK   49  A    between atoms: _116  and  _117
REMARK   50  A    between atoms: _119  and  _121
REMARK   51  A    between atoms: _121  and  _122
REMARK   52  A    between atoms: _125  and  _127
REMARK   53  A    between atoms: _127  and  _128
REMARK   54  A    between atoms: _131  and  _133
REMARK   55  A    between atoms: _133  and  _134
REMARK   56  A    between atoms: _133  and  _136
REMARK   57  A    between atoms: _136  and  _137
REMARK   58  A    between atoms: _142  and  _144
REMARK   59  A    between atoms: _144  and  _145
REMARK   60  A    between atoms: _144  and  _147
REMARK   61  A    between atoms: _147  and  _148
REMARK   62  A    between atoms: _149  and  _151
REMARK   63  A    between atoms: _151  and  _152
REMARK   64  A    between atoms: _151  and  _154
REMARK   65  A    between atoms: _154  and  _155
REMARK   66  A    between atoms: _161  and  _163
REMARK   67  A    between atoms: _163  and  _164
REMARK   68  A    between atoms: _163  and  _166
REMARK   69  A    between atoms: _166  and  _167
REMARK   70  A    between atoms: _172  and  _173
REMARK   71  A    between atoms: _175  and  _177
REMARK   72  A    between atoms: _177  and  _178
REMARK   73  A    between atoms: _180  and  _182
REMARK   74  A    between atoms: _182  and  _183
REMARK   75  A    between atoms: _182  and  _185
REMARK   76  A    between atoms: _188  and  _190
REMARK   77  A    between atoms: _190  and  _191
REMARK   78  A    between atoms: _190  and  _193
REMARK   79  A    between atoms: _193  and  _194
REMARK   80  A    between atoms: _194  and  _195
REMARK   81  A    between atoms: _200  and  _202
REMARK   82  A    between atoms: _202  and  _203
REMARK   83  A    between atoms: _202  and  _205
REMARK   84  A    between atoms: _205  and  _206
REMARK   85  A    between atoms: _211  and  _212
REMARK   86  A    between atoms: _214  and  _216
REMARK   87  A    between atoms: _216  and  _217
REMARK   88  A    between atoms: _220  and  _222
REMARK   89  A    between atoms: _222  and  _223
REMARK   90  A    between atoms: _222  and  _225
REMARK   91  A    between atoms: _225  and  _226
REMARK   92  A    between atoms: _229  and  _231
REMARK   93  A    between atoms: _231  and  _232
REMARK   94  A    between atoms: _231  and  _234
REMARK   95  A    between atoms: _237  and  _239
REMARK   96  A    between atoms: _239  and  _240
REMARK   97  A    between atoms: _239  and  _242
REMARK   98  A    between atoms: _242  and  _243
REMARK   99  A    between atoms: _253  and  _255
REMARK  100  A    between atoms: _255  and  _256
REMARK  101  A    between atoms: _258  and  _260
REMARK  102  A    between atoms: _260  and  _261
REMARK  103  A    between atoms: _260  and  _263
REMARK  104  A    between atoms: _263  and  _264
REMARK  105  A    between atoms: _269  and  _270
REMARK  106  A    between atoms: _272  and  _274
REMARK  107  A    between atoms: _274  and  _275
REMARK  108  A    between atoms: _274  and  _277
REMARK  109  A    between atoms: _277  and  _278
REMARK  110  A    between atoms: _278  and  _279
REMARK  111  A    between atoms: _279  and  _280
REMARK  112  A    between atoms: _280  and  _281
REMARK  113  A    between atoms: _285  and  _287
REMARK  114  A    between atoms: _287  and  _288
REMARK  115  A    between atoms: _287  and  _290
REMARK  116  A    between atoms: _290  and  _291
REMARK  117  A    between atoms: _294  and  _296
REMARK  118  A    between atoms: _296  and  _297
REMARK  119  A    between atoms: _296  and  _299
REMARK  120  A    between atoms: _299  and  _300
REMARK  121  A    between atoms: _303  and  _305
REMARK  122  A    between atoms: _305  and  _306
REMARK  123  A    between atoms: _305  and  _308
REMARK  124  A    between atoms: _308  and  _309
REMARK  125  A    between atoms: _309  and  _310
REMARK  126  A    between atoms: _310  and  _311
REMARK  127  A    between atoms: _311  and  _312
REMARK  128  A    between atoms: _316  and  _318
REMARK  129  A    between atoms: _318  and  _319
REMARK  130  A    between atoms: _318  and  _321
REMARK  131  A    between atoms: _321  and  _322
REMARK  132  A    between atoms: _325  and  _327
REMARK  133  A    between atoms: _327  and  _328
REMARK  134  A    between atoms: _327  and  _330
REMARK  135  A    between atoms: _330  and  _331
REMARK  136  A    between atoms: _331  and  _332
REMARK  137  A    between atoms: _337  and  _339
REMARK  138  A    between atoms: _339  and  _340
REMARK  139  A    between atoms: _339  and  _342
REMARK  140  A    between atoms: _342  and  _343
REMARK  141  A    between atoms: _346  and  _348
REMARK  142  A    between atoms: _348  and  _349
REMARK  143  A    between atoms: _348  and  _351
REMARK  144  A    between atoms: _351  and  _352
REMARK  145  A    between atoms: _357  and  _358
REMARK  146  A    between atoms: _360  and  _362
REMARK  147  A    between atoms: _362  and  _363
REMARK  148  A    between atoms: _362  and  _365
REMARK  149  A    between atoms: _365  and  _366
REMARK  150  A    between atoms: _369  and  _371
REMARK  151  A    between atoms: _371  and  _372
REMARK  152  A    between atoms: _371  and  _374
REMARK  153  A    between atoms: _376  and  _378
REMARK  154  A    between atoms: _378  and  _379
REMARK  155  A    between atoms: _382  and  _384
REMARK  156  A    between atoms: _384  and  _385
REMARK  157  A    between atoms: _384  and  _387
REMARK  158  A    between atoms: _387  and  _388
REMARK  159  A    between atoms: _388  and  _389
REMARK  160  A    between atoms: _389  and  _390
REMARK  161  A    between atoms: _390  and  _391
REMARK  162  A    between atoms: _395  and  _397
REMARK  163  A    between atoms: _397  and  _398
REMARK  164  A    between atoms: _397  and  _400
REMARK  165  A    between atoms: _400  and  _401
REMARK  166  A    between atoms: _404  and  _406
REMARK  167  A    between atoms: _406  and  _407
REMARK  168  A    between atoms: _410  and  _412
REMARK  169  A    between atoms: _412  and  _413
REMARK  170  A    between atoms: _412  and  _415
REMARK  171  A    between atoms: _415  and  _416
REMARK  172  A    between atoms: _416  and  _530
REMARK  173  A    between atoms: _417  and  _419
REMARK  174  A    between atoms: _419  and  _420
REMARK  175  A    between atoms: _419  and  _422
REMARK  176  A    between atoms: _422  and  _423
REMARK  177  A    between atoms: _423  and  _424
REMARK  178  A    between atoms: _424  and  _425
REMARK  179  A    between atoms: _425  and  _426
REMARK  180  A    between atoms: _430  and  _432
REMARK  181  A    between atoms: _432  and  _433
REMARK  182  A    between atoms: _435  and  _437
REMARK  183  A    between atoms: _437  and  _438
REMARK  184  A    between atoms: _437  and  _440
REMARK  185  A    between atoms: _440  and  _441
REMARK  186  A    between atoms: _444  and  _446
REMARK  187  A    between atoms: _446  and  _447
REMARK  188  A    between atoms: _446  and  _449
REMARK  189  A    between atoms: _449  and  _450
REMARK  190  A    between atoms: _452  and  _454
REMARK  191  A    between atoms: _454  and  _455
REMARK  192  A    between atoms: _457  and  _459
REMARK  193  A    between atoms: _459  and  _460
REMARK  194  A    between atoms: _462  and  _464
REMARK  195  A    between atoms: _464  and  _465
REMARK  196  A    between atoms: _464  and  _467
REMARK  197  A    between atoms: _467  and  _468
REMARK  198  A    between atoms: _471  and  _473
REMARK  199  A    between atoms: _473  and  _474
REMARK  200  A    between atoms: _473  and  _476
REMARK  201  A    between atoms: _476  and  _477
REMARK  202  A    between atoms: _480  and  _482
REMARK  203  A    between atoms: _482  and  _483
REMARK  204  A    between atoms: _482  and  _485
REMARK  205  A    between atoms: _485  and  _486
REMARK  206  A    between atoms: _488  and  _490
REMARK  207  A    between atoms: _490  and  _491
REMARK  208  A    between atoms: _490  and  _493
REMARK  209  A    between atoms: _493  and  _494
REMARK  210  A    between atoms: _504  and  _506
REMARK  211  A    between atoms: _506  and  _507
REMARK  212  A    between atoms: _509  and  _511
REMARK  213  A    between atoms: _511  and  _512
REMARK  214  A    between atoms: _511  and  _514
REMARK  215  A    between atoms: _514  and  _515
REMARK  216  A    between atoms: _515  and  _516
REMARK  217  A    between atoms: _519  and  _521
REMARK  218  A    between atoms: _521  and  _522
REMARK  219  A    between atoms: _524  and  _526
REMARK  220  A    between atoms: _526  and  _527
REMARK  221  A    between atoms: _526  and  _529
REMARK  222  A    between atoms: _529  and  _530
REMARK  223  A    between atoms: _531  and  _533
REMARK  224  A    between atoms: _533  and  _534
REMARK  225  A    between atoms: _537  and  _539
REMARK  226  A    between atoms: _539  and  _540
REMARK  227  A    between atoms: _539  and  _542
REMARK  228  A    between atoms: _542  and  _543
REMARK  229  A    between atoms: _543  and  _544
REMARK  230  A    between atoms: _549  and  _551
REMARK  231  A    between atoms: _551  and  _552
REMARK  232  A    between atoms: _551  and  _554
REMARK  233  A    between atoms: _554  and  _555
REMARK  234  A    between atoms: _555  and  _556
REMARK  235  A    between atoms: _556  and  _557
REMARK  236  A    between atoms: _567  and  _568
REMARK  237  A    between atoms: _573  and  _575
REMARK  238  A    between atoms: _575  and  _576
REMARK  239  A    between atoms: _578  and  _580
REMARK  240  A    between atoms: _580  and  _581
REMARK  241  A    between atoms: _580  and  _583
REMARK  242  A    between atoms: _586  and  _588
REMARK  243  A    between atoms: _588  and  _589
REMARK  244  A    between atoms: _588  and  _591
REMARK  245  A    between atoms: _591  and  _592
REMARK  246  A    between atoms: _597  and  _598
REMARK  247  A    between atoms: _600  and  _602
REMARK  248  A    between atoms: _602  and  _603
REMARK  249  A    between atoms: _602  and  _605
REMARK  250  A    between atoms: _605  and  _606
REMARK                            x       y       z     vdW  Elec       q    Type
REMARK                         _______ _______ _______ _____ _____    ______ ____
ROOT
ATOM      1  O   HOH     1      23.489  14.284 -44.085  0.00  0.00    +0.000 OA
ENDROOT
TORSDOF 0
REMARK  Name = ../refined-set-2016/4x6p/4x6p_pocket.pdb
REMARK  250 active torsions:
REMARK  status: ('A' for Active; 'I' for Inactive)
REMARK    1  A    between atoms: _1  and  _5
REMARK    2  A    between atoms: _5  and  _6
REMARK    3  A    between atoms: _5  and  _8
REMARK    4  A    between atoms: _8  and  _9
REMARK    5  A    between atoms: _12  and  _14
REMARK    6  A    between atoms: _14  and  _15
REMARK    7  A    between atoms: _14  and  _17
REMARK    8  A    between atoms: _20  and  _22
REMARK    9  A    between atoms: _22  and  _23
REMARK   10  A    between atoms: _22  and  _25
REMARK   11  A    between atoms: _25  and  _26
REMARK   12  A    between atoms: _29  and  _31
REMARK   13  A    between atoms: _31  and  _32
REMARK   14  A    between atoms: _31  and  _34
REMARK   15  A    between atoms: _34  and  _35
REMARK   16  A    between atoms: _38  and  _40
REMARK   17  A    between atoms: _40  and  _41
REMARK   18  A    between atoms: _40  and  _43
REMARK   19  A    between atoms: _43  and  _44
REMARK   20  A    between atoms: _49  and  _51
REMARK   21  A    between atoms: _51  and  _52
REMARK   22  A    between atoms: _51  and  _54
REMARK   23  A    between atoms: _54  and  _55
REMARK   24  A    between atoms: _58  and  _60
REMARK   25  A    between atoms: _60  and  _61
REMARK   26  A    between atoms: _60  and  _63
REMARK   27  A    between atoms: _63  and  _64
REMARK   28  A    between atoms: _64  and  _65
REMARK   29  A    between atoms: _70  and  _72
REMARK   30  A    between atoms: _72  and  _73
REMARK   31  A    between atoms: _72  and  _75
REMARK   32  A    between atoms: _75  and  _76
REMARK   33  A    between atoms: _76  and  _77
REMARK   34  A    between atoms: _77  and  _78
REMARK   35  A    between atoms: _87  and  _89
REMARK   36  A    between atoms: _89  and  _90
REMARK   37  A    between atoms: _89  and  _92
REMARK   38  A    between atoms: _92  and  _93
REMARK   39  A    between atoms: _98  and  _100
REMARK   40  A    between atoms: _100  and  _101
REMARK   41  A    between atoms: _100  and  _103
REMARK   42  A    between atoms: _103  and  _104
REMARK   43  A    between atoms: _107  and  _109
REMARK   44  A    between atoms: _109  and  _110
REMARK   45  A    between atoms: _109  and  _112
REMARK   46  A    between atoms: _112  and  _113
REMARK   47  A    between atoms: _113  and  _148
REMARK   48  A    between atoms: _114  and  _116
REMARK   49  A    between atoms: _116  and  _117
REMARK   50  A    between atoms: _119  and  _121
REMARK   51  A    between atoms: _121  and  _122
REMARK   52  A    between atoms: _125  and  _127
REMARK   53  A    between atoms: _127  and  _128
REMARK   54  A    between atoms: _131  and  _133
REMARK   55  A    between atoms: _133  and  _134
REMARK   56  A    between atoms: _133  and  _136
REMARK   57  A    between atoms: _136  and  _137
REMARK   58  A    between atoms: _142  and  _144
REMARK   59  A    between atoms: _144  and  _145
REMARK   60  A    between atoms: _144  and  _147
REMARK   61  A    between atoms: _147  and  _148
REMARK   62  A    between atoms: _149  and  _151
REMARK   63  A    between atoms: _151  and  _152
REMARK   64  A    between atoms: _151  and  _154
REMARK   65  A    between atoms: _154  and  _155
REMARK   66  A    between atoms: _161  and  _163
REMARK   67  A    between atoms: _163  and  _164
REMARK   68  A    between atoms: _163  and  _166
REMARK   69  A    between atoms: _166  and  _167
REMARK   70  A    between atoms: _172  and  _173
REMARK   71  A    between atoms: _175  and  _177
REMARK   72  A    between atoms: _177  and  _178
REMARK   73  A    between atoms: _180  and  _182
REMARK   74  A    between atoms: _182  and  _183
REMARK   75  A    between atoms: _182  and  _185
REMARK   76  A    between atoms: _188  and  _190
REMARK   77  A    between atoms: _190  and  _191
REMARK   78  A    between atoms: _190  and  _193
REMARK   79  A    between atoms: _193  and  _194
REMARK   80  A    between atoms: _194  and  _195
REMARK   81  A    between atoms: _200  and  _202
REMARK   82  A    between atoms: _202  and  _203
REMARK   83  A    between atoms: _202  and  _205
REMARK   84  A    between atoms: _205  and  _206
REMARK   85  A    between atoms: _211  and  _212
REMARK   86  A    between atoms: _214  and  _216
REMARK   87  A    between atoms: _216  and  _217
REMARK   88  A    between atoms: _220  and  _222
REMARK   89  A    between atoms: _222  and  _223
REMARK   90  A    between atoms: _222  and  _225
REMARK   91  A    between atoms: _225  and  _226
REMARK   92  A    between atoms: _229  and  _231
REMARK   93  A    between atoms: _231  and  _232
REMARK   94  A    between atoms: _231  and  _234
REMARK   95  A    between atoms: _237  and  _239
REMARK   96  A    between atoms: _239  and  _240
REMARK   97  A    between atoms: _239  and  _242
REMARK   98  A    between atoms: _242  and  _243
REMARK   99  A    between atoms: _253  and  _255
REMARK  100  A    between atoms: _255  and  _256
REMARK  101  A    between atoms: _258  and  _260
REMARK  102  A    between atoms: _260  and  _261
REMARK  103  A    between atoms: _260  and  _263
REMARK  104  A    between atoms: _263  and  _264
REMARK  105  A    between atoms: _269  and  _270
REMARK  106  A    between atoms: _272  and  _274
REMARK  107  A    between atoms: _274  and  _275
REMARK  108  A    between atoms: _274  and  _277
REMARK  109  A    between atoms: _277  and  _278
REMARK  110  A    between atoms: _278  and  _279
REMARK  111  A    between atoms: _279  and  _280
REMARK  112  A    between atoms: _280  and  _281
REMARK  113  A    between atoms: _285  and  _287
REMARK  114  A    between atoms: _287  and  _288
REMARK  115  A    between atoms: _287  and  _290
REMARK  116  A    between atoms: _290  and  _291
REMARK  117  A    between atoms: _294  and  _296
REMARK  118  A    between atoms: _296  and  _297
REMARK  119  A    between atoms: _296  and  _299
REMARK  120  A    between atoms: _299  and  _300
REMARK  121  A    between atoms: _303  and  _305
REMARK  122  A    between atoms: _305  and  _306
REMARK  123  A    between atoms: _305  and  _308
REMARK  124  A    between atoms: _308  and  _309
REMARK  125  A    between atoms: _309  and  _310
REMARK  126  A    between atoms: _310  and  _311
REMARK  127  A    between atoms: _311  and  _312
REMARK  128  A    between atoms: _316  and  _318
REMARK  129  A    between atoms: _318  and  _319
REMARK  130  A    between atoms: _318  and  _321
REMARK  131  A    between atoms: _321  and  _322
REMARK  132  A    between atoms: _325  and  _327
REMARK  133  A    between atoms: _327  and  _328
REMARK  134  A    between atoms: _327  and  _330
REMARK  135  A    between atoms: _330  and  _331
REMARK  136  A    between atoms: _331  and  _332
REMARK  137  A    between atoms: _337  and  _339
REMARK  138  A    between atoms: _339  and  _340
REMARK  139  A    between atoms: _339  and  _342
REMARK  140  A    between atoms: _342  and  _343
REMARK  141  A    between atoms: _346  and  _348
REMARK  142  A    between atoms: _348  and  _349
REMARK  143  A    between atoms: _348  and  _351
REMARK  144  A    between atoms: _351  and  _352
REMARK  145  A    between atoms: _357  and  _358
REMARK  146  A    between atoms: _360  and  _362
REMARK  147  A    between atoms: _362  and  _363
REMARK  148  A    between atoms: _362  and  _365
REMARK  149  A    between atoms: _365  and  _366
REMARK  150  A    between atoms: _369  and  _371
REMARK  151  A    between atoms: _371  and  _372
REMARK  152  A    between atoms: _371  and  _374
REMARK  153  A    between atoms: _376  and  _378
REMARK  154  A    between atoms: _378  and  _379
REMARK  155  A    between atoms: _382  and  _384
REMARK  156  A    between atoms: _384  and  _385
REMARK  157  A    between atoms: _384  and  _387
REMARK  158  A    between atoms: _387  and  _388
REMARK  159  A    between atoms: _388  and  _389
REMARK  160  A    between atoms: _389  and  _390
REMARK  161  A    between atoms: _390  and  _391
REMARK  162  A    between atoms: _395  and  _397
REMARK  163  A    between atoms: _397  and  _398
REMARK  164  A    between atoms: _397  and  _400
REMARK  165  A    between atoms: _400  and  _401
REMARK  166  A    between atoms: _404  and  _406
REMARK  167  A    between atoms: _406  and  _407
REMARK  168  A    between atoms: _410  and  _412
REMARK  169  A    between atoms: _412  and  _413
REMARK  170  A    between atoms: _412  and  _415
REMARK  171  A    between atoms: _415  and  _416
REMARK  172  A    between atoms: _416  and  _530
REMARK  173  A    between atoms: _417  and  _419
REMARK  174  A    between atoms: _419  and  _420
REMARK  175  A    between atoms: _419  and  _422
REMARK  176  A    between atoms: _422  and  _423
REMARK  177  A    between atoms: _423  and  _424
REMARK  178  A    between atoms: _424  and  _425
REMARK  179  A    between atoms: _425  and  _426
REMARK  180  A    between atoms: _430  and  _432
REMARK  181  A    between atoms: _432  and  _433
REMARK  182  A    between atoms: _435  and  _437
REMARK  183  A    between atoms: _437  and  _438
REMARK  184  A    between atoms: _437  and  _440
REMARK  185  A    between atoms: _440  and  _441
REMARK  186  A    between atoms: _444  and  _446
REMARK  187  A    between atoms: _446  and  _447
REMARK  188  A    between atoms: _446  and  _449
REMARK  189  A    between atoms: _449  and  _450
REMARK  190  A    between atoms: _452  and  _454
REMARK  191  A    between atoms: _454  and  _455
REMARK  192  A    between atoms: _457  and  _459
REMARK  193  A    between atoms: _459  and  _460
REMARK  194  A    between atoms: _462  and  _464
REMARK  195  A    between atoms: _464  and  _465
REMARK  196  A    between atoms: _464  and  _467
REMARK  197  A    between atoms: _467  and  _468
REMARK  198  A    between atoms: _471  and  _473
REMARK  199  A    between atoms: _473  and  _474
REMARK  200  A    between atoms: _473  and  _476
REMARK  201  A    between atoms: _476  and  _477
REMARK  202  A    between atoms: _480  and  _482
REMARK  203  A    between atoms: _482  and  _483
REMARK  204  A    between atoms: _482  and  _485
REMARK  205  A    between atoms: _485  and  _486
REMARK  206  A    between atoms: _488  and  _490
REMARK  207  A    between atoms: _490  and  _491
REMARK  208  A    between atoms: _490  and  _493
REMARK  209  A    between atoms: _493  and  _494
REMARK  210  A    between atoms: _504  and  _506
REMARK  211  A    between atoms: _506  and  _507
REMARK  212  A    between atoms: _509  and  _511
REMARK  213  A    between atoms: _511  and  _512
REMARK  214  A    between atoms: _511  and  _514
REMARK  215  A    between atoms: _514  and  _515
REMARK  216  A    between atoms: _515  and  _516
REMARK  217  A    between atoms: _519  and  _521
REMARK  218  A    between atoms: _521  and  _522
REMARK  219  A    between atoms: _524  and  _526
REMARK  220  A    between atoms: _526  and  _527
REMARK  221  A    between atoms: _526  and  _529
REMARK  222  A    between atoms: _529  and  _530
REMARK  223  A    between atoms: _531  and  _533
REMARK  224  A    between atoms: _533  and  _534
REMARK  225  A    between atoms: _537  and  _539
REMARK  226  A    between atoms: _539  and  _540
REMARK  227  A    between atoms: _539  and  _542
REMARK  228  A    between atoms: _542  and  _543
REMARK  229  A    between atoms: _543  and  _544
REMARK  230  A    between atoms: _549  and  _551
REMARK  231  A    between atoms: _551  and  _552
REMARK  232  A    between atoms: _551  and  _554
REMARK  233  A    between atoms: _554  and  _555
REMARK  234  A    between atoms: _555  and  _556
REMARK  235  A    between atoms: _556  and  _557
REMARK  236  A    between atoms: _567  and  _568
REMARK  237  A    between atoms: _573  and  _575
REMARK  238  A    between atoms: _575  and  _576
REMARK  239  A    between atoms: _578  and  _580
REMARK  240  A    between atoms: _580  and  _581
REMARK  241  A    between atoms: _580  and  _583
REMARK  242  A    between atoms: _586  and  _588
REMARK  243  A    between atoms: _588  and  _589
REMARK  244  A    between atoms: _588  and  _591
REMARK  245  A    between atoms: _591  and  _592
REMARK  246  A    between atoms: _597  and  _598
REMARK  247  A    between atoms: _600  and  _602
REMARK  248  A    between atoms: _602  and  _603
REMARK  249  A    between atoms: _602  and  _605
REMARK  250  A    between atoms: _605  and  _606
REMARK                            x       y       z     vdW  Elec       q    Type
REMARK                         _______ _______ _______ _____ _____    ______ ____
ROOT
ATOM      1  O   HOH     1      23.046  16.390 -42.133  0.00  0.00    +0.000 OA
ENDROOT
TORSDOF 0
REMARK  Name = ../refined-set-2016/4x6p/4x6p_pocket.pdb
REMARK  250 active torsions:
REMARK  status: ('A' for Active; 'I' for Inactive)
REMARK    1  A    between atoms: _1  and  _5
REMARK    2  A    between atoms: _5  and  _6
REMARK    3  A    between atoms: _5  and  _8
REMARK    4  A    between atoms: _8  and  _9
REMARK    5  A    between atoms: _12  and  _14
REMARK    6  A    between atoms: _14  and  _15
REMARK    7  A    between atoms: _14  and  _17
REMARK    8  A    between atoms: _20  and  _22
REMARK    9  A    between atoms: _22  and  _23
REMARK   10  A    between atoms: _22  and  _25
REMARK   11  A    between atoms: _25  and  _26
REMARK   12  A    between atoms: _29  and  _31
REMARK   13  A    between atoms: _31  and  _32
REMARK   14  A    between atoms: _31  and  _34
REMARK   15  A    between atoms: _34  and  _35
REMARK   16  A    between atoms: _38  and  _40
REMARK   17  A    between atoms: _40  and  _41
REMARK   18  A    between atoms: _40  and  _43
REMARK   19  A    between atoms: _43  and  _44
REMARK   20  A    between atoms: _49  and  _51
REMARK   21  A    between atoms: _51  and  _52
REMARK   22  A    between atoms: _51  and  _54
REMARK   23  A    between atoms: _54  and  _55
REMARK   24  A    between atoms: _58  and  _60
REMARK   25  A    between atoms: _60  and  _61
REMARK   26  A    between atoms: _60  and  _63
REMARK   27  A    between atoms: _63  and  _64
REMARK   28  A    between atoms: _64  and  _65
REMARK   29  A    between atoms: _70  and  _72
REMARK   30  A    between atoms: _72  and  _73
REMARK   31  A    between atoms: _72  and  _75
REMARK   32  A    between atoms: _75  and  _76
REMARK   33  A    between atoms: _76  and  _77
REMARK   34  A    between atoms: _77  and  _78
REMARK   35  A    between atoms: _87  and  _89
REMARK   36  A    between atoms: _89  and  _90
REMARK   37  A    between atoms: _89  and  _92
REMARK   38  A    between atoms: _92  and  _93
REMARK   39  A    between atoms: _98  and  _100
REMARK   40  A    between atoms: _100  and  _101
REMARK   41  A    between atoms: _100  and  _103
REMARK   42  A    between atoms: _103  and  _104
REMARK   43  A    between atoms: _107  and  _109
REMARK   44  A    between atoms: _109  and  _110
REMARK   45  A    between atoms: _109  and  _112
REMARK   46  A    between atoms: _112  and  _113
REMARK   47  A    between atoms: _113  and  _148
REMARK   48  A    between atoms: _114  and  _116
REMARK   49  A    between atoms: _116  and  _117
REMARK   50  A    between atoms: _119  and  _121
REMARK   51  A    between atoms: _121  and  _122
REMARK   52  A    between atoms: _125  and  _127
REMARK   53  A    between atoms: _127  and  _128
REMARK   54  A    between atoms: _131  and  _133
REMARK   55  A    between atoms: _133  and  _134
REMARK   56  A    between atoms: _133  and  _136
REMARK   57  A    between atoms: _136  and  _137
REMARK   58  A    between atoms: _142  and  _144
REMARK   59  A    between atoms: _144  and  _145
REMARK   60  A    between atoms: _144  and  _147
REMARK   61  A    between atoms: _147  and  _148
REMARK   62  A    between atoms: _149  and  _151
REMARK   63  A    between atoms: _151  and  _152
REMARK   64  A    between atoms: _151  and  _154
REMARK   65  A    between atoms: _154  and  _155
REMARK   66  A    between atoms: _161  and  _163
REMARK   67  A    between atoms: _163  and  _164
REMARK   68  A    between atoms: _163  and  _166
REMARK   69  A    between atoms: _166  and  _167
REMARK   70  A    between atoms: _172  and  _173
REMARK   71  A    between atoms: _175  and  _177
REMARK   72  A    between atoms: _177  and  _178
REMARK   73  A    between atoms: _180  and  _182
REMARK   74  A    between atoms: _182  and  _183
REMARK   75  A    between atoms: _182  and  _185
REMARK   76  A    between atoms: _188  and  _190
REMARK   77  A    between atoms: _190  and  _191
REMARK   78  A    between atoms: _190  and  _193
REMARK   79  A    between atoms: _193  and  _194
REMARK   80  A    between atoms: _194  and  _195
REMARK   81  A    between atoms: _200  and  _202
REMARK   82  A    between atoms: _202  and  _203
REMARK   83  A    between atoms: _202  and  _205
REMARK   84  A    between atoms: _205  and  _206
REMARK   85  A    between atoms: _211  and  _212
REMARK   86  A    between atoms: _214  and  _216
REMARK   87  A    between atoms: _216  and  _217
REMARK   88  A    between atoms: _220  and  _222
REMARK   89  A    between atoms: _222  and  _223
REMARK   90  A    between atoms: _222  and  _225
REMARK   91  A    between atoms: _225  and  _226
REMARK   92  A    between atoms: _229  and  _231
REMARK   93  A    between atoms: _231  and  _232
REMARK   94  A    between atoms: _231  and  _234
REMARK   95  A    between atoms: _237  and  _239
REMARK   96  A    between atoms: _239  and  _240
REMARK   97  A    between atoms: _239  and  _242
REMARK   98  A    between atoms: _242  and  _243
REMARK   99  A    between atoms: _253  and  _255
REMARK  100  A    between atoms: _255  and  _256
REMARK  101  A    between atoms: _258  and  _260
REMARK  102  A    between atoms: _260  and  _261
REMARK  103  A    between atoms: _260  and  _263
REMARK  104  A    between atoms: _263  and  _264
REMARK  105  A    between atoms: _269  and  _270
REMARK  106  A    between atoms: _272  and  _274
REMARK  107  A    between atoms: _274  and  _275
REMARK  108  A    between atoms: _274  and  _277
REMARK  109  A    between atoms: _277  and  _278
REMARK  110  A    between atoms: _278  and  _279
REMARK  111  A    between atoms: _279  and  _280
REMARK  112  A    between atoms: _280  and  _281
REMARK  113  A    between atoms: _285  and  _287
REMARK  114  A    between atoms: _287  and  _288
REMARK  115  A    between atoms: _287  and  _290
REMARK  116  A    between atoms: _290  and  _291
REMARK  117  A    between atoms: _294  and  _296
REMARK  118  A    between atoms: _296  and  _297
REMARK  119  A    between atoms: _296  and  _299
REMARK  120  A    between atoms: _299  and  _300
REMARK  121  A    between atoms: _303  and  _305
REMARK  122  A    between atoms: _305  and  _306
REMARK  123  A    between atoms: _305  and  _308
REMARK  124  A    between atoms: _308  and  _309
REMARK  125  A    between atoms: _309  and  _310
REMARK  126  A    between atoms: _310  and  _311
REMARK  127  A    between atoms: _311  and  _312
REMARK  128  A    between atoms: _316  and  _318
REMARK  129  A    between atoms: _318  and  _319
REMARK  130  A    between atoms: _318  and  _321
REMARK  131  A    between atoms: _321  and  _322
REMARK  132  A    between atoms: _325  and  _327
REMARK  133  A    between atoms: _327  and  _328
REMARK  134  A    between atoms: _327  and  _330
REMARK  135  A    between atoms: _330  and  _331
REMARK  136  A    between atoms: _331  and  _332
REMARK  137  A    between atoms: _337  and  _339
REMARK  138  A    between atoms: _339  and  _340
REMARK  139  A    between atoms: _339  and  _342
REMARK  140  A    between atoms: _342  and  _343
REMARK  141  A    between atoms: _346  and  _348
REMARK  142  A    between atoms: _348  and  _349
REMARK  143  A    between atoms: _348  and  _351
REMARK  144  A    between atoms: _351  and  _352
REMARK  145  A    between atoms: _357  and  _358
REMARK  146  A    between atoms: _360  and  _362
REMARK  147  A    between atoms: _362  and  _363
REMARK  148  A    between atoms: _362  and  _365
REMARK  149  A    between atoms: _365  and  _366
REMARK  150  A    between atoms: _369  and  _371
REMARK  151  A    between atoms: _371  and  _372
REMARK  152  A    between atoms: _371  and  _374
REMARK  153  A    between atoms: _376  and  _378
REMARK  154  A    between atoms: _378  and  _379
REMARK  155  A    between atoms: _382  and  _384
REMARK  156  A    between atoms: _384  and  _385
REMARK  157  A    between atoms: _384  and  _387
REMARK  158  A    between atoms: _387  and  _388
REMARK  159  A    between atoms: _388  and  _389
REMARK  160  A    between atoms: _389  and  _390
REMARK  161  A    between atoms: _390  and  _391
REMARK  162  A    between atoms: _395  and  _397
REMARK  163  A    between atoms: _397  and  _398
REMARK  164  A    between atoms: _397  and  _400
REMARK  165  A    between atoms: _400  and  _401
REMARK  166  A    between atoms: _404  and  _406
REMARK  167  A    between atoms: _406  and  _407
REMARK  168  A    between atoms: _410  and  _412
REMARK  169  A    between atoms: _412  and  _413
REMARK  170  A    between atoms: _412  and  _415
REMARK  171  A    between atoms: _415  and  _416
REMARK  172  A    between atoms: _416  and  _530
REMARK  173  A    between atoms: _417  and  _419
REMARK  174  A    between atoms: _419  and  _420
REMARK  175  A    between atoms: _419  and  _422
REMARK  176  A    between atoms: _422  and  _423
REMARK  177  A    between atoms: _423  and  _424
REMARK  178  A    between atoms: _424  and  _425
REMARK  179  A    between atoms: _425  and  _426
REMARK  180  A    between atoms: _430  and  _432
REMARK  181  A    between atoms: _432  and  _433
REMARK  182  A    between atoms: _435  and  _437
REMARK  183  A    between atoms: _437  and  _438
REMARK  184  A    between atoms: _437  and  _440
REMARK  185  A    between atoms: _440  and  _441
REMARK  186  A    between atoms: _444  and  _446
REMARK  187  A    between atoms: _446  and  _447
REMARK  188  A    between atoms: _446  and  _449
REMARK  189  A    between atoms: _449  and  _450
REMARK  190  A    between atoms: _452  and  _454
REMARK  191  A    between atoms: _454  and  _455
REMARK  192  A    between atoms: _457  and  _459
REMARK  193  A    between atoms: _459  and  _460
REMARK  194  A    between atoms: _462  and  _464
REMARK  195  A    between atoms: _464  and  _465
REMARK  196  A    between atoms: _464  and  _467
REMARK  197  A    between atoms: _467  and  _468
REMARK  198  A    between atoms: _471  and  _473
REMARK  199  A    between atoms: _473  and  _474
REMARK  200  A    between atoms: _473  and  _476
REMARK  201  A    between atoms: _476  and  _477
REMARK  202  A    between atoms: _480  and  _482
REMARK  203  A    between atoms: _482  and  _483
REMARK  204  A    between atoms: _482  and  _485
REMARK  205  A    between atoms: _485  and  _486
REMARK  206  A    between atoms: _488  and  _490
REMARK  207  A    between atoms: _490  and  _491
REMARK  208  A    between atoms: _490  and  _493
REMARK  209  A    between atoms: _493  and  _494
REMARK  210  A    between atoms: _504  and  _506
REMARK  211  A    between atoms: _506  and  _507
REMARK  212  A    between atoms: _509  and  _511
REMARK  213  A    between atoms: _511  and  _512
REMARK  214  A    between atoms: _511  and  _514
REMARK  215  A    between atoms: _514  and  _515
REMARK  216  A    between atoms: _515  and  _516
REMARK  217  A    between atoms: _519  and  _521
REMARK  218  A    between atoms: _521  and  _522
REMARK  219  A    between atoms: _524  and  _526
REMARK  220  A    between atoms: _526  and  _527
REMARK  221  A    between atoms: _526  and  _529
REMARK  222  A    between atoms: _529  and  _530
REMARK  223  A    between atoms: _531  and  _533
REMARK  224  A    between atoms: _533  and  _534
REMARK  225  A    between atoms: _537  and  _539
REMARK  226  A    between atoms: _539  and  _540
REMARK  227  A    between atoms: _539  and  _542
REMARK  228  A    between atoms: _542  and  _543
REMARK  229  A    between atoms: _543  and  _544
REMARK  230  A    between atoms: _549  and  _551
REMARK  231  A    between atoms: _551  and  _552
REMARK  232  A    between atoms: _551  and  _554
REMARK  233  A    between atoms: _554  and  _555
REMARK  234  A    between atoms: _555  and  _556
REMARK  235  A    between atoms: _556  and  _557
REMARK  236  A    between atoms: _567  and  _568
REMARK  237  A    between atoms: _573  and  _575
REMARK  238  A    between atoms: _575  and  _576
REMARK  239  A    between atoms: _578  and  _580
REMARK  240  A    between atoms: _580  and  _581
REMARK  241  A    between atoms: _580  and  _583
REMARK  242  A    between atoms: _586  and  _588
REMARK  243  A    between atoms: _588  and  _589
REMARK  244  A    between atoms: _588  and  _591
REMARK  245  A    between atoms: _591  and  _592
REMARK  246  A    between atoms: _597  and  _598
REMARK  247  A    between atoms: _600  and  _602
REMARK  248  A    between atoms: _602  and  _603
REMARK  249  A    between atoms: _602  and  _605
REMARK  250  A    between atoms: _605  and  _606
REMARK                            x       y       z     vdW  Elec       q    Type
REMARK                         _______ _______ _______ _____ _____    ______ ____
ROOT
ATOM      1  O   HOH     1      10.883  29.203 -41.214  0.00  0.00    +0.000 OA
ENDROOT
TORSDOF 0
REMARK  Name = ../refined-set-2016/4x6p/4x6p_pocket.pdb
REMARK  250 active torsions:
REMARK  status: ('A' for Active; 'I' for Inactive)
REMARK    1  A    between atoms: _1  and  _5
REMARK    2  A    between atoms: _5  and  _6
REMARK    3  A    between atoms: _5  and  _8
REMARK    4  A    between atoms: _8  and  _9
REMARK    5  A    between atoms: _12  and  _14
REMARK    6  A    between atoms: _14  and  _15
REMARK    7  A    between atoms: _14  and  _17
REMARK    8  A    between atoms: _20  and  _22
REMARK    9  A    between atoms: _22  and  _23
REMARK   10  A    between atoms: _22  and  _25
REMARK   11  A    between atoms: _25  and  _26
REMARK   12  A    between atoms: _29  and  _31
REMARK   13  A    between atoms: _31  and  _32
REMARK   14  A    between atoms: _31  and  _34
REMARK   15  A    between atoms: _34  and  _35
REMARK   16  A    between atoms: _38  and  _40
REMARK   17  A    between atoms: _40  and  _41
REMARK   18  A    between atoms: _40  and  _43
REMARK   19  A    between atoms: _43  and  _44
REMARK   20  A    between atoms: _49  and  _51
REMARK   21  A    between atoms: _51  and  _52
REMARK   22  A    between atoms: _51  and  _54
REMARK   23  A    between atoms: _54  and  _55
REMARK   24  A    between atoms: _58  and  _60
REMARK   25  A    between atoms: _60  and  _61
REMARK   26  A    between atoms: _60  and  _63
REMARK   27  A    between atoms: _63  and  _64
REMARK   28  A    between atoms: _64  and  _65
REMARK   29  A    between atoms: _70  and  _72
REMARK   30  A    between atoms: _72  and  _73
REMARK   31  A    between atoms: _72  and  _75
REMARK   32  A    between atoms: _75  and  _76
REMARK   33  A    between atoms: _76  and  _77
REMARK   34  A    between atoms: _77  and  _78
REMARK   35  A    between atoms: _87  and  _89
REMARK   36  A    between atoms: _89  and  _90
REMARK   37  A    between atoms: _89  and  _92
REMARK   38  A    between atoms: _92  and  _93
REMARK   39  A    between atoms: _98  and  _100
REMARK   40  A    between atoms: _100  and  _101
REMARK   41  A    between atoms: _100  and  _103
REMARK   42  A    between atoms: _103  and  _104
REMARK   43  A    between atoms: _107  and  _109
REMARK   44  A    between atoms: _109  and  _110
REMARK   45  A    between atoms: _109  and  _112
REMARK   46  A    between atoms: _112  and  _113
REMARK   47  A    between atoms: _113  and  _148
REMARK   48  A    between atoms: _114  and  _116
REMARK   49  A    between atoms: _116  and  _117
REMARK   50  A    between atoms: _119  and  _121
REMARK   51  A    between atoms: _121  and  _122
REMARK   52  A    between atoms: _125  and  _127
REMARK   53  A    between atoms: _127  and  _128
REMARK   54  A    between atoms: _131  and  _133
REMARK   55  A    between atoms: _133  and  _134
REMARK   56  A    between atoms: _133  and  _136
REMARK   57  A    between atoms: _136  and  _137
REMARK   58  A    between atoms: _142  and  _144
REMARK   59  A    between atoms: _144  and  _145
REMARK   60  A    between atoms: _144  and  _147
REMARK   61  A    between atoms: _147  and  _148
REMARK   62  A    between atoms: _149  and  _151
REMARK   63  A    between atoms: _151  and  _152
REMARK   64  A    between atoms: _151  and  _154
REMARK   65  A    between atoms: _154  and  _155
REMARK   66  A    between atoms: _161  and  _163
REMARK   67  A    between atoms: _163  and  _164
REMARK   68  A    between atoms: _163  and  _166
REMARK   69  A    between atoms: _166  and  _167
REMARK   70  A    between atoms: _172  and  _173
REMARK   71  A    between atoms: _175  and  _177
REMARK   72  A    between atoms: _177  and  _178
REMARK   73  A    between atoms: _180  and  _182
REMARK   74  A    between atoms: _182  and  _183
REMARK   75  A    between atoms: _182  and  _185
REMARK   76  A    between atoms: _188  and  _190
REMARK   77  A    between atoms: _190  and  _191
REMARK   78  A    between atoms: _190  and  _193
REMARK   79  A    between atoms: _193  and  _194
REMARK   80  A    between atoms: _194  and  _195
REMARK   81  A    between atoms: _200  and  _202
REMARK   82  A    between atoms: _202  and  _203
REMARK   83  A    between atoms: _202  and  _205
REMARK   84  A    between atoms: _205  and  _206
REMARK   85  A    between atoms: _211  and  _212
REMARK   86  A    between atoms: _214  and  _216
REMARK   87  A    between atoms: _216  and  _217
REMARK   88  A    between atoms: _220  and  _222
REMARK   89  A    between atoms: _222  and  _223
REMARK   90  A    between atoms: _222  and  _225
REMARK   91  A    between atoms: _225  and  _226
REMARK   92  A    between atoms: _229  and  _231
REMARK   93  A    between atoms: _231  and  _232
REMARK   94  A    between atoms: _231  and  _234
REMARK   95  A    between atoms: _237  and  _239
REMARK   96  A    between atoms: _239  and  _240
REMARK   97  A    between atoms: _239  and  _242
REMARK   98  A    between atoms: _242  and  _243
REMARK   99  A    between atoms: _253  and  _255
REMARK  100  A    between atoms: _255  and  _256
REMARK  101  A    between atoms: _258  and  _260
REMARK  102  A    between atoms: _260  and  _261
REMARK  103  A    between atoms: _260  and  _263
REMARK  104  A    between atoms: _263  and  _264
REMARK  105  A    between atoms: _269  and  _270
REMARK  106  A    between atoms: _272  and  _274
REMARK  107  A    between atoms: _274  and  _275
REMARK  108  A    between atoms: _274  and  _277
REMARK  109  A    between atoms: _277  and  _278
REMARK  110  A    between atoms: _278  and  _279
REMARK  111  A    between atoms: _279  and  _280
REMARK  112  A    between atoms: _280  and  _281
REMARK  113  A    between atoms: _285  and  _287
REMARK  114  A    between atoms: _287  and  _288
REMARK  115  A    between atoms: _287  and  _290
REMARK  116  A    between atoms: _290  and  _291
REMARK  117  A    between atoms: _294  and  _296
REMARK  118  A    between atoms: _296  and  _297
REMARK  119  A    between atoms: _296  and  _299
REMARK  120  A    between atoms: _299  and  _300
REMARK  121  A    between atoms: _303  and  _305
REMARK  122  A    between atoms: _305  and  _306
REMARK  123  A    between atoms: _305  and  _308
REMARK  124  A    between atoms: _308  and  _309
REMARK  125  A    between atoms: _309  and  _310
REMARK  126  A    between atoms: _310  and  _311
REMARK  127  A    between atoms: _311  and  _312
REMARK  128  A    between atoms: _316  and  _318
REMARK  129  A    between atoms: _318  and  _319
REMARK  130  A    between atoms: _318  and  _321
REMARK  131  A    between atoms: _321  and  _322
REMARK  132  A    between atoms: _325  and  _327
REMARK  133  A    between atoms: _327  and  _328
REMARK  134  A    between atoms: _327  and  _330
REMARK  135  A    between atoms: _330  and  _331
REMARK  136  A    between atoms: _331  and  _332
REMARK  137  A    between atoms: _337  and  _339
REMARK  138  A    between atoms: _339  and  _340
REMARK  139  A    between atoms: _339  and  _342
REMARK  140  A    between atoms: _342  and  _343
REMARK  141  A    between atoms: _346  and  _348
REMARK  142  A    between atoms: _348  and  _349
REMARK  143  A    between atoms: _348  and  _351
REMARK  144  A    between atoms: _351  and  _352
REMARK  145  A    between atoms: _357  and  _358
REMARK  146  A    between atoms: _360  and  _362
REMARK  147  A    between atoms: _362  and  _363
REMARK  148  A    between atoms: _362  and  _365
REMARK  149  A    between atoms: _365  and  _366
REMARK  150  A    between atoms: _369  and  _371
REMARK  151  A    between atoms: _371  and  _372
REMARK  152  A    between atoms: _371  and  _374
REMARK  153  A    between atoms: _376  and  _378
REMARK  154  A    between atoms: _378  and  _379
REMARK  155  A    between atoms: _382  and  _384
REMARK  156  A    between atoms: _384  and  _385
REMARK  157  A    between atoms: _384  and  _387
REMARK  158  A    between atoms: _387  and  _388
REMARK  159  A    between atoms: _388  and  _389
REMARK  160  A    between atoms: _389  and  _390
REMARK  161  A    between atoms: _390  and  _391
REMARK  162  A    between atoms: _395  and  _397
REMARK  163  A    between atoms: _397  and  _398
REMARK  164  A    between atoms: _397  and  _400
REMARK  165  A    between atoms: _400  and  _401
REMARK  166  A    between atoms: _404  and  _406
REMARK  167  A    between atoms: _406  and  _407
REMARK  168  A    between atoms: _410  and  _412
REMARK  169  A    between atoms: _412  and  _413
REMARK  170  A    between atoms: _412  and  _415
REMARK  171  A    between atoms: _415  and  _416
REMARK  172  A    between atoms: _416  and  _530
REMARK  173  A    between atoms: _417  and  _419
REMARK  174  A    between atoms: _419  and  _420
REMARK  175  A    between atoms: _419  and  _422
REMARK  176  A    between atoms: _422  and  _423
REMARK  177  A    between atoms: _423  and  _424
REMARK  178  A    between atoms: _424  and  _425
REMARK  179  A    between atoms: _425  and  _426
REMARK  180  A    between atoms: _430  and  _432
REMARK  181  A    between atoms: _432  and  _433
REMARK  182  A    between atoms: _435  and  _437
REMARK  183  A    between atoms: _437  and  _438
REMARK  184  A    between atoms: _437  and  _440
REMARK  185  A    between atoms: _440  and  _441
REMARK  186  A    between atoms: _444  and  _446
REMARK  187  A    between atoms: _446  and  _447
REMARK  188  A    between atoms: _446  and  _449
REMARK  189  A    between atoms: _449  and  _450
REMARK  190  A    between atoms: _452  and  _454
REMARK  191  A    between atoms: _454  and  _455
REMARK  192  A    between atoms: _457  and  _459
REMARK  193  A    between atoms: _459  and  _460
REMARK  194  A    between atoms: _462  and  _464
REMARK  195  A    between atoms: _464  and  _465
REMARK  196  A    between atoms: _464  and  _467
REMARK  197  A    between atoms: _467  and  _468
REMARK  198  A    between atoms: _471  and  _473
REMARK  199  A    between atoms: _473  and  _474
REMARK  200  A    between atoms: _473  and  _476
REMARK  201  A    between atoms: _476  and  _477
REMARK  202  A    between atoms: _480  and  _482
REMARK  203  A    between atoms: _482  and  _483
REMARK  204  A    between atoms: _482  and  _485
REMARK  205  A    between atoms: _485  and  _486
REMARK  206  A    between atoms: _488  and  _490
REMARK  207  A    between atoms: _490  and  _491
REMARK  208  A    between atoms: _490  and  _493
REMARK  209  A    between atoms: _493  and  _494
REMARK  210  A    between atoms: _504  and  _506
REMARK  211  A    between atoms: _506  and  _507
REMARK  212  A    between atoms: _509  and  _511
REMARK  213  A    between atoms: _511  and  _512
REMARK  214  A    between atoms: _511  and  _514
REMARK  215  A    between atoms: _514  and  _515
REMARK  216  A    between atoms: _515  and  _516
REMARK  217  A    between atoms: _519  and  _521
REMARK  218  A    between atoms: _521  and  _522
REMARK  219  A    between atoms: _524  and  _526
REMARK  220  A    between atoms: _526  and  _527
REMARK  221  A    between atoms: _526  and  _529
REMARK  222  A    between atoms: _529  and  _530
REMARK  223  A    between atoms: _531  and  _533
REMARK  224  A    between atoms: _533  and  _534
REMARK  225  A    between atoms: _537  and  _539
REMARK  226  A    between atoms: _539  and  _540
REMARK  227  A    between atoms: _539  and  _542
REMARK  228  A    between atoms: _542  and  _543
REMARK  229  A    between atoms: _543  and  _544
REMARK  230  A    between atoms: _549  and  _551
REMARK  231  A    between atoms: _551  and  _552
REMARK  232  A    between atoms: _551  and  _554
REMARK  233  A    between atoms: _554  and  _555
REMARK  234  A    between atoms: _555  and  _556
REMARK  235  A    between atoms: _556  and  _557
REMARK  236  A    between atoms: _567  and  _568
REMARK  237  A    between atoms: _573  and  _575
REMARK  238  A    between atoms: _575  and  _576
REMARK  239  A    between atoms: _578  and  _580
REMARK  240  A    between atoms: _580  and  _581
REMARK  241  A    between atoms: _580  and  _583
REMARK  242  A    between atoms: _586  and  _588
REMARK  243  A    between atoms: _588  and  _589
REMARK  244  A    between atoms: _588  and  _591
REMARK  245  A    between atoms: _591  and  _592
REMARK  246  A    between atoms: _597  and  _598
REMARK  247  A    between atoms: _600  and  _602
REMARK  248  A    between atoms: _602  and  _603
REMARK  249  A    between atoms: _602  and  _605
REMARK  250  A    between atoms: _605  and  _606
REMARK                            x       y       z     vdW  Elec       q    Type
REMARK                         _______ _______ _______ _____ _____    ______ ____
ROOT
ATOM      1  O   HOH     1      17.774  17.527 -47.003  0.00  0.00    +0.000 OA
ENDROOT
TORSDOF 0
REMARK  Name = ../refined-set-2016/4x6p/4x6p_pocket.pdb
REMARK  250 active torsions:
REMARK  status: ('A' for Active; 'I' for Inactive)
REMARK    1  A    between atoms: _1  and  _5
REMARK    2  A    between atoms: _5  and  _6
REMARK    3  A    between atoms: _5  and  _8
REMARK    4  A    between atoms: _8  and  _9
REMARK    5  A    between atoms: _12  and  _14
REMARK    6  A    between atoms: _14  and  _15
REMARK    7  A    between atoms: _14  and  _17
REMARK    8  A    between atoms: _20  and  _22
REMARK    9  A    between atoms: _22  and  _23
REMARK   10  A    between atoms: _22  and  _25
REMARK   11  A    between atoms: _25  and  _26
REMARK   12  A    between atoms: _29  and  _31
REMARK   13  A    between atoms: _31  and  _32
REMARK   14  A    between atoms: _31  and  _34
REMARK   15  A    between atoms: _34  and  _35
REMARK   16  A    between atoms: _38  and  _40
REMARK   17  A    between atoms: _40  and  _41
REMARK   18  A    between atoms: _40  and  _43
REMARK   19  A    between atoms: _43  and  _44
REMARK   20  A    between atoms: _49  and  _51
REMARK   21  A    between atoms: _51  and  _52
REMARK   22  A    between atoms: _51  and  _54
REMARK   23  A    between atoms: _54  and  _55
REMARK   24  A    between atoms: _58  and  _60
REMARK   25  A    between atoms: _60  and  _61
REMARK   26  A    between atoms: _60  and  _63
REMARK   27  A    between atoms: _63  and  _64
REMARK   28  A    between atoms: _64  and  _65
REMARK   29  A    between atoms: _70  and  _72
REMARK   30  A    between atoms: _72  and  _73
REMARK   31  A    between atoms: _72  and  _75
REMARK   32  A    between atoms: _75  and  _76
REMARK   33  A    between atoms: _76  and  _77
REMARK   34  A    between atoms: _77  and  _78
REMARK   35  A    between atoms: _87  and  _89
REMARK   36  A    between atoms: _89  and  _90
REMARK   37  A    between atoms: _89  and  _92
REMARK   38  A    between atoms: _92  and  _93
REMARK   39  A    between atoms: _98  and  _100
REMARK   40  A    between atoms: _100  and  _101
REMARK   41  A    between atoms: _100  and  _103
REMARK   42  A    between atoms: _103  and  _104
REMARK   43  A    between atoms: _107  and  _109
REMARK   44  A    between atoms: _109  and  _110
REMARK   45  A    between atoms: _109  and  _112
REMARK   46  A    between atoms: _112  and  _113
REMARK   47  A    between atoms: _113  and  _148
REMARK   48  A    between atoms: _114  and  _116
REMARK   49  A    between atoms: _116  and  _117
REMARK   50  A    between atoms: _119  and  _121
REMARK   51  A    between atoms: _121  and  _122
REMARK   52  A    between atoms: _125  and  _127
REMARK   53  A    between atoms: _127  and  _128
REMARK   54  A    between atoms: _131  and  _133
REMARK   55  A    between atoms: _133  and  _134
REMARK   56  A    between atoms: _133  and  _136
REMARK   57  A    between atoms: _136  and  _137
REMARK   58  A    between atoms: _142  and  _144
REMARK   59  A    between atoms: _144  and  _145
REMARK   60  A    between atoms: _144  and  _147
REMARK   61  A    between atoms: _147  and  _148
REMARK   62  A    between atoms: _149  and  _151
REMARK   63  A    between atoms: _151  and  _152
REMARK   64  A    between atoms: _151  and  _154
REMARK   65  A    between atoms: _154  and  _155
REMARK   66  A    between atoms: _161  and  _163
REMARK   67  A    between atoms: _163  and  _164
REMARK   68  A    between atoms: _163  and  _166
REMARK   69  A    between atoms: _166  and  _167
REMARK   70  A    between atoms: _172  and  _173
REMARK   71  A    between atoms: _175  and  _177
REMARK   72  A    between atoms: _177  and  _178
REMARK   73  A    between atoms: _180  and  _182
REMARK   74  A    between atoms: _182  and  _183
REMARK   75  A    between atoms: _182  and  _185
REMARK   76  A    between atoms: _188  and  _190
REMARK   77  A    between atoms: _190  and  _191
REMARK   78  A    between atoms: _190  and  _193
REMARK   79  A    between atoms: _193  and  _194
REMARK   80  A    between atoms: _194  and  _195
REMARK   81  A    between atoms: _200  and  _202
REMARK   82  A    between atoms: _202  and  _203
REMARK   83  A    between atoms: _202  and  _205
REMARK   84  A    between atoms: _205  and  _206
REMARK   85  A    between atoms: _211  and  _212
REMARK   86  A    between atoms: _214  and  _216
REMARK   87  A    between atoms: _216  and  _217
REMARK   88  A    between atoms: _220  and  _222
REMARK   89  A    between atoms: _222  and  _223
REMARK   90  A    between atoms: _222  and  _225
REMARK   91  A    between atoms: _225  and  _226
REMARK   92  A    between atoms: _229  and  _231
REMARK   93  A    between atoms: _231  and  _232
REMARK   94  A    between atoms: _231  and  _234
REMARK   95  A    between atoms: _237  and  _239
REMARK   96  A    between atoms: _239  and  _240
REMARK   97  A    between atoms: _239  and  _242
REMARK   98  A    between atoms: _242  and  _243
REMARK   99  A    between atoms: _253  and  _255
REMARK  100  A    between atoms: _255  and  _256
REMARK  101  A    between atoms: _258  and  _260
REMARK  102  A    between atoms: _260  and  _261
REMARK  103  A    between atoms: _260  and  _263
REMARK  104  A    between atoms: _263  and  _264
REMARK  105  A    between atoms: _269  and  _270
REMARK  106  A    between atoms: _272  and  _274
REMARK  107  A    between atoms: _274  and  _275
REMARK  108  A    between atoms: _274  and  _277
REMARK  109  A    between atoms: _277  and  _278
REMARK  110  A    between atoms: _278  and  _279
REMARK  111  A    between atoms: _279  and  _280
REMARK  112  A    between atoms: _280  and  _281
REMARK  113  A    between atoms: _285  and  _287
REMARK  114  A    between atoms: _287  and  _288
REMARK  115  A    between atoms: _287  and  _290
REMARK  116  A    between atoms: _290  and  _291
REMARK  117  A    between atoms: _294  and  _296
REMARK  118  A    between atoms: _296  and  _297
REMARK  119  A    between atoms: _296  and  _299
REMARK  120  A    between atoms: _299  and  _300
REMARK  121  A    between atoms: _303  and  _305
REMARK  122  A    between atoms: _305  and  _306
REMARK  123  A    between atoms: _305  and  _308
REMARK  124  A    between atoms: _308  and  _309
REMARK  125  A    between atoms: _309  and  _310
REMARK  126  A    between atoms: _310  and  _311
REMARK  127  A    between atoms: _311  and  _312
REMARK  128  A    between atoms: _316  and  _318
REMARK  129  A    between atoms: _318  and  _319
REMARK  130  A    between atoms: _318  and  _321
REMARK  131  A    between atoms: _321  and  _322
REMARK  132  A    between atoms: _325  and  _327
REMARK  133  A    between atoms: _327  and  _328
REMARK  134  A    between atoms: _327  and  _330
REMARK  135  A    between atoms: _330  and  _331
REMARK  136  A    between atoms: _331  and  _332
REMARK  137  A    between atoms: _337  and  _339
REMARK  138  A    between atoms: _339  and  _340
REMARK  139  A    between atoms: _339  and  _342
REMARK  140  A    between atoms: _342  and  _343
REMARK  141  A    between atoms: _346  and  _348
REMARK  142  A    between atoms: _348  and  _349
REMARK  143  A    between atoms: _348  and  _351
REMARK  144  A    between atoms: _351  and  _352
REMARK  145  A    between atoms: _357  and  _358
REMARK  146  A    between atoms: _360  and  _362
REMARK  147  A    between atoms: _362  and  _363
REMARK  148  A    between atoms: _362  and  _365
REMARK  149  A    between atoms: _365  and  _366
REMARK  150  A    between atoms: _369  and  _371
REMARK  151  A    between atoms: _371  and  _372
REMARK  152  A    between atoms: _371  and  _374
REMARK  153  A    between atoms: _376  and  _378
REMARK  154  A    between atoms: _378  and  _379
REMARK  155  A    between atoms: _382  and  _384
REMARK  156  A    between atoms: _384  and  _385
REMARK  157  A    between atoms: _384  and  _387
REMARK  158  A    between atoms: _387  and  _388
REMARK  159  A    between atoms: _388  and  _389
REMARK  160  A    between atoms: _389  and  _390
REMARK  161  A    between atoms: _390  and  _391
REMARK  162  A    between atoms: _395  and  _397
REMARK  163  A    between atoms: _397  and  _398
REMARK  164  A    between atoms: _397  and  _400
REMARK  165  A    between atoms: _400  and  _401
REMARK  166  A    between atoms: _404  and  _406
REMARK  167  A    between atoms: _406  and  _407
REMARK  168  A    between atoms: _410  and  _412
REMARK  169  A    between atoms: _412  and  _413
REMARK  170  A    between atoms: _412  and  _415
REMARK  171  A    between atoms: _415  and  _416
REMARK  172  A    between atoms: _416  and  _530
REMARK  173  A    between atoms: _417  and  _419
REMARK  174  A    between atoms: _419  and  _420
REMARK  175  A    between atoms: _419  and  _422
REMARK  176  A    between atoms: _422  and  _423
REMARK  177  A    between atoms: _423  and  _424
REMARK  178  A    between atoms: _424  and  _425
REMARK  179  A    between atoms: _425  and  _426
REMARK  180  A    between atoms: _430  and  _432
REMARK  181  A    between atoms: _432  and  _433
REMARK  182  A    between atoms: _435  and  _437
REMARK  183  A    between atoms: _437  and  _438
REMARK  184  A    between atoms: _437  and  _440
REMARK  185  A    between atoms: _440  and  _441
REMARK  186  A    between atoms: _444  and  _446
REMARK  187  A    between atoms: _446  and  _447
REMARK  188  A    between atoms: _446  and  _449
REMARK  189  A    between atoms: _449  and  _450
REMARK  190  A    between atoms: _452  and  _454
REMARK  191  A    between atoms: _454  and  _455
REMARK  192  A    between atoms: _457  and  _459
REMARK  193  A    between atoms: _459  and  _460
REMARK  194  A    between atoms: _462  and  _464
REMARK  195  A    between atoms: _464  and  _465
REMARK  196  A    between atoms: _464  and  _467
REMARK  197  A    between atoms: _467  and  _468
REMARK  198  A    between atoms: _471  and  _473
REMARK  199  A    between atoms: _473  and  _474
REMARK  200  A    between atoms: _473  and  _476
REMARK  201  A    between atoms: _476  and  _477
REMARK  202  A    between atoms: _480  and  _482
REMARK  203  A    between atoms: _482  and  _483
REMARK  204  A    between atoms: _482  and  _485
REMARK  205  A    between atoms: _485  and  _486
REMARK  206  A    between atoms: _488  and  _490
REMARK  207  A    between atoms: _490  and  _491
REMARK  208  A    between atoms: _490  and  _493
REMARK  209  A    between atoms: _493  and  _494
REMARK  210  A    between atoms: _504  and  _506
REMARK  211  A    between atoms: _506  and  _507
REMARK  212  A    between atoms: _509  and  _511
REMARK  213  A    between atoms: _511  and  _512
REMARK  214  A    between atoms: _511  and  _514
REMARK  215  A    between atoms: _514  and  _515
REMARK  216  A    between atoms: _515  and  _516
REMARK  217  A    between atoms: _519  and  _521
REMARK  218  A    between atoms: _521  and  _522
REMARK  219  A    between atoms: _524  and  _526
REMARK  220  A    between atoms: _526  and  _527
REMARK  221  A    between atoms: _526  and  _529
REMARK  222  A    between atoms: _529  and  _530
REMARK  223  A    between atoms: _531  and  _533
REMARK  224  A    between atoms: _533  and  _534
REMARK  225  A    between atoms: _537  and  _539
REMARK  226  A    between atoms: _539  and  _540
REMARK  227  A    between atoms: _539  and  _542
REMARK  228  A    between atoms: _542  and  _543
REMARK  229  A    between atoms: _543  and  _544
REMARK  230  A    between atoms: _549  and  _551
REMARK  231  A    between atoms: _551  and  _552
REMARK  232  A    between atoms: _551  and  _554
REMARK  233  A    between atoms: _554  and  _555
REMARK  234  A    between atoms: _555  and  _556
REMARK  235  A    between atoms: _556  and  _557
REMARK  236  A    between atoms: _567  and  _568
REMARK  237  A    between atoms: _573  and  _575
REMARK  238  A    between atoms: _575  and  _576
REMARK  239  A    between atoms: _578  and  _580
REMARK  240  A    between atoms: _580  and  _581
REMARK  241  A    between atoms: _580  and  _583
REMARK  242  A    between atoms: _586  and  _588
REMARK  243  A    between atoms: _588  and  _589
REMARK  244  A    between atoms: _588  and  _591
REMARK  245  A    between atoms: _591  and  _592
REMARK  246  A    between atoms: _597  and  _598
REMARK  247  A    between atoms: _600  and  _602
REMARK  248  A    between atoms: _602  and  _603
REMARK  249  A    between atoms: _602  and  _605
REMARK  250  A    between atoms: _605  and  _606
REMARK                            x       y       z     vdW  Elec       q    Type
REMARK                         _______ _______ _______ _____ _____    ______ ____
ROOT
ATOM      1  O   HOH     1      -1.116  19.744 -35.069  0.00  0.00    +0.000 OA
ENDROOT
TORSDOF 0
REMARK  Name = ../refined-set-2016/4x6p/4x6p_pocket.pdb
REMARK  250 active torsions:
REMARK  status: ('A' for Active; 'I' for Inactive)
REMARK    1  A    between atoms: _1  and  _5
REMARK    2  A    between atoms: _5  and  _6
REMARK    3  A    between atoms: _5  and  _8
REMARK    4  A    between atoms: _8  and  _9
REMARK    5  A    between atoms: _12  and  _14
REMARK    6  A    between atoms: _14  and  _15
REMARK    7  A    between atoms: _14  and  _17
REMARK    8  A    between atoms: _20  and  _22
REMARK    9  A    between atoms: _22  and  _23
REMARK   10  A    between atoms: _22  and  _25
REMARK   11  A    between atoms: _25  and  _26
REMARK   12  A    between atoms: _29  and  _31
REMARK   13  A    between atoms: _31  and  _32
REMARK   14  A    between atoms: _31  and  _34
REMARK   15  A    between atoms: _34  and  _35
REMARK   16  A    between atoms: _38  and  _40
REMARK   17  A    between atoms: _40  and  _41
REMARK   18  A    between atoms: _40  and  _43
REMARK   19  A    between atoms: _43  and  _44
REMARK   20  A    between atoms: _49  and  _51
REMARK   21  A    between atoms: _51  and  _52
REMARK   22  A    between atoms: _51  and  _54
REMARK   23  A    between atoms: _54  and  _55
REMARK   24  A    between atoms: _58  and  _60
REMARK   25  A    between atoms: _60  and  _61
REMARK   26  A    between atoms: _60  and  _63
REMARK   27  A    between atoms: _63  and  _64
REMARK   28  A    between atoms: _64  and  _65
REMARK   29  A    between atoms: _70  and  _72
REMARK   30  A    between atoms: _72  and  _73
REMARK   31  A    between atoms: _72  and  _75
REMARK   32  A    between atoms: _75  and  _76
REMARK   33  A    between atoms: _76  and  _77
REMARK   34  A    between atoms: _77  and  _78
REMARK   35  A    between atoms: _87  and  _89
REMARK   36  A    between atoms: _89  and  _90
REMARK   37  A    between atoms: _89  and  _92
REMARK   38  A    between atoms: _92  and  _93
REMARK   39  A    between atoms: _98  and  _100
REMARK   40  A    between atoms: _100  and  _101
REMARK   41  A    between atoms: _100  and  _103
REMARK   42  A    between atoms: _103  and  _104
REMARK   43  A    between atoms: _107  and  _109
REMARK   44  A    between atoms: _109  and  _110
REMARK   45  A    between atoms: _109  and  _112
REMARK   46  A    between atoms: _112  and  _113
REMARK   47  A    between atoms: _113  and  _148
REMARK   48  A    between atoms: _114  and  _116
REMARK   49  A    between atoms: _116  and  _117
REMARK   50  A    between atoms: _119  and  _121
REMARK   51  A    between atoms: _121  and  _122
REMARK   52  A    between atoms: _125  and  _127
REMARK   53  A    between atoms: _127  and  _128
REMARK   54  A    between atoms: _131  and  _133
REMARK   55  A    between atoms: _133  and  _134
REMARK   56  A    between atoms: _133  and  _136
REMARK   57  A    between atoms: _136  and  _137
REMARK   58  A    between atoms: _142  and  _144
REMARK   59  A    between atoms: _144  and  _145
REMARK   60  A    between atoms: _144  and  _147
REMARK   61  A    between atoms: _147  and  _148
REMARK   62  A    between atoms: _149  and  _151
REMARK   63  A    between atoms: _151  and  _152
REMARK   64  A    between atoms: _151  and  _154
REMARK   65  A    between atoms: _154  and  _155
REMARK   66  A    between atoms: _161  and  _163
REMARK   67  A    between atoms: _163  and  _164
REMARK   68  A    between atoms: _163  and  _166
REMARK   69  A    between atoms: _166  and  _167
REMARK   70  A    between atoms: _172  and  _173
REMARK   71  A    between atoms: _175  and  _177
REMARK   72  A    between atoms: _177  and  _178
REMARK   73  A    between atoms: _180  and  _182
REMARK   74  A    between atoms: _182  and  _183
REMARK   75  A    between atoms: _182  and  _185
REMARK   76  A    between atoms: _188  and  _190
REMARK   77  A    between atoms: _190  and  _191
REMARK   78  A    between atoms: _190  and  _193
REMARK   79  A    between atoms: _193  and  _194
REMARK   80  A    between atoms: _194  and  _195
REMARK   81  A    between atoms: _200  and  _202
REMARK   82  A    between atoms: _202  and  _203
REMARK   83  A    between atoms: _202  and  _205
REMARK   84  A    between atoms: _205  and  _206
REMARK   85  A    between atoms: _211  and  _212
REMARK   86  A    between atoms: _214  and  _216
REMARK   87  A    between atoms: _216  and  _217
REMARK   88  A    between atoms: _220  and  _222
REMARK   89  A    between atoms: _222  and  _223
REMARK   90  A    between atoms: _222  and  _225
REMARK   91  A    between atoms: _225  and  _226
REMARK   92  A    between atoms: _229  and  _231
REMARK   93  A    between atoms: _231  and  _232
REMARK   94  A    between atoms: _231  and  _234
REMARK   95  A    between atoms: _237  and  _239
REMARK   96  A    between atoms: _239  and  _240
REMARK   97  A    between atoms: _239  and  _242
REMARK   98  A    between atoms: _242  and  _243
REMARK   99  A    between atoms: _253  and  _255
REMARK  100  A    between atoms: _255  and  _256
REMARK  101  A    between atoms: _258  and  _260
REMARK  102  A    between atoms: _260  and  _261
REMARK  103  A    between atoms: _260  and  _263
REMARK  104  A    between atoms: _263  and  _264
REMARK  105  A    between atoms: _269  and  _270
REMARK  106  A    between atoms: _272  and  _274
REMARK  107  A    between atoms: _274  and  _275
REMARK  108  A    between atoms: _274  and  _277
REMARK  109  A    between atoms: _277  and  _278
REMARK  110  A    between atoms: _278  and  _279
REMARK  111  A    between atoms: _279  and  _280
REMARK  112  A    between atoms: _280  and  _281
REMARK  113  A    between atoms: _285  and  _287
REMARK  114  A    between atoms: _287  and  _288
REMARK  115  A    between atoms: _287  and  _290
REMARK  116  A    between atoms: _290  and  _291
REMARK  117  A    between atoms: _294  and  _296
REMARK  118  A    between atoms: _296  and  _297
REMARK  119  A    between atoms: _296  and  _299
REMARK  120  A    between atoms: _299  and  _300
REMARK  121  A    between atoms: _303  and  _305
REMARK  122  A    between atoms: _305  and  _306
REMARK  123  A    between atoms: _305  and  _308
REMARK  124  A    between atoms: _308  and  _309
REMARK  125  A    between atoms: _309  and  _310
REMARK  126  A    between atoms: _310  and  _311
REMARK  127  A    between atoms: _311  and  _312
REMARK  128  A    between atoms: _316  and  _318
REMARK  129  A    between atoms: _318  and  _319
REMARK  130  A    between atoms: _318  and  _321
REMARK  131  A    between atoms: _321  and  _322
REMARK  132  A    between atoms: _325  and  _327
REMARK  133  A    between atoms: _327  and  _328
REMARK  134  A    between atoms: _327  and  _330
REMARK  135  A    between atoms: _330  and  _331
REMARK  136  A    between atoms: _331  and  _332
REMARK  137  A    between atoms: _337  and  _339
REMARK  138  A    between atoms: _339  and  _340
REMARK  139  A    between atoms: _339  and  _342
REMARK  140  A    between atoms: _342  and  _343
REMARK  141  A    between atoms: _346  and  _348
REMARK  142  A    between atoms: _348  and  _349
REMARK  143  A    between atoms: _348  and  _351
REMARK  144  A    between atoms: _351  and  _352
REMARK  145  A    between atoms: _357  and  _358
REMARK  146  A    between atoms: _360  and  _362
REMARK  147  A    between atoms: _362  and  _363
REMARK  148  A    between atoms: _362  and  _365
REMARK  149  A    between atoms: _365  and  _366
REMARK  150  A    between atoms: _369  and  _371
REMARK  151  A    between atoms: _371  and  _372
REMARK  152  A    between atoms: _371  and  _374
REMARK  153  A    between atoms: _376  and  _378
REMARK  154  A    between atoms: _378  and  _379
REMARK  155  A    between atoms: _382  and  _384
REMARK  156  A    between atoms: _384  and  _385
REMARK  157  A    between atoms: _384  and  _387
REMARK  158  A    between atoms: _387  and  _388
REMARK  159  A    between atoms: _388  and  _389
REMARK  160  A    between atoms: _389  and  _390
REMARK  161  A    between atoms: _390  and  _391
REMARK  162  A    between atoms: _395  and  _397
REMARK  163  A    between atoms: _397  and  _398
REMARK  164  A    between atoms: _397  and  _400
REMARK  165  A    between atoms: _400  and  _401
REMARK  166  A    between atoms: _404  and  _406
REMARK  167  A    between atoms: _406  and  _407
REMARK  168  A    between atoms: _410  and  _412
REMARK  169  A    between atoms: _412  and  _413
REMARK  170  A    between atoms: _412  and  _415
REMARK  171  A    between atoms: _415  and  _416
REMARK  172  A    between atoms: _416  and  _530
REMARK  173  A    between atoms: _417  and  _419
REMARK  174  A    between atoms: _419  and  _420
REMARK  175  A    between atoms: _419  and  _422
REMARK  176  A    between atoms: _422  and  _423
REMARK  177  A    between atoms: _423  and  _424
REMARK  178  A    between atoms: _424  and  _425
REMARK  179  A    between atoms: _425  and  _426
REMARK  180  A    between atoms: _430  and  _432
REMARK  181  A    between atoms: _432  and  _433
REMARK  182  A    between atoms: _435  and  _437
REMARK  183  A    between atoms: _437  and  _438
REMARK  184  A    between atoms: _437  and  _440
REMARK  185  A    between atoms: _440  and  _441
REMARK  186  A    between atoms: _444  and  _446
REMARK  187  A    between atoms: _446  and  _447
REMARK  188  A    between atoms: _446  and  _449
REMARK  189  A    between atoms: _449  and  _450
REMARK  190  A    between atoms: _452  and  _454
REMARK  191  A    between atoms: _454  and  _455
REMARK  192  A    between atoms: _457  and  _459
REMARK  193  A    between atoms: _459  and  _460
REMARK  194  A    between atoms: _462  and  _464
REMARK  195  A    between atoms: _464  and  _465
REMARK  196  A    between atoms: _464  and  _467
REMARK  197  A    between atoms: _467  and  _468
REMARK  198  A    between atoms: _471  and  _473
REMARK  199  A    between atoms: _473  and  _474
REMARK  200  A    between atoms: _473  and  _476
REMARK  201  A    between atoms: _476  and  _477
REMARK  202  A    between atoms: _480  and  _482
REMARK  203  A    between atoms: _482  and  _483
REMARK  204  A    between atoms: _482  and  _485
REMARK  205  A    between atoms: _485  and  _486
REMARK  206  A    between atoms: _488  and  _490
REMARK  207  A    between atoms: _490  and  _491
REMARK  208  A    between atoms: _490  and  _493
REMARK  209  A    between atoms: _493  and  _494
REMARK  210  A    between atoms: _504  and  _506
REMARK  211  A    between atoms: _506  and  _507
REMARK  212  A    between atoms: _509  and  _511
REMARK  213  A    between atoms: _511  and  _512
REMARK  214  A    between atoms: _511  and  _514
REMARK  215  A    between atoms: _514  and  _515
REMARK  216  A    between atoms: _515  and  _516
REMARK  217  A    between atoms: _519  and  _521
REMARK  218  A    between atoms: _521  and  _522
REMARK  219  A    between atoms: _524  and  _526
REMARK  220  A    between atoms: _526  and  _527
REMARK  221  A    between atoms: _526  and  _529
REMARK  222  A    between atoms: _529  and  _530
REMARK  223  A    between atoms: _531  and  _533
REMARK  224  A    between atoms: _533  and  _534
REMARK  225  A    between atoms: _537  and  _539
REMARK  226  A    between atoms: _539  and  _540
REMARK  227  A    between atoms: _539  and  _542
REMARK  228  A    between atoms: _542  and  _543
REMARK  229  A    between atoms: _543  and  _544
REMARK  230  A    between atoms: _549  and  _551
REMARK  231  A    between atoms: _551  and  _552
REMARK  232  A    between atoms: _551  and  _554
REMARK  233  A    between atoms: _554  and  _555
REMARK  234  A    between atoms: _555  and  _556
REMARK  235  A    between atoms: _556  and  _557
REMARK  236  A    between atoms: _567  and  _568
REMARK  237  A    between atoms: _573  and  _575
REMARK  238  A    between atoms: _575  and  _576
REMARK  239  A    between atoms: _578  and  _580
REMARK  240  A    between atoms: _580  and  _581
REMARK  241  A    between atoms: _580  and  _583
REMARK  242  A    between atoms: _586  and  _588
REMARK  243  A    between atoms: _588  and  _589
REMARK  244  A    between atoms: _588  and  _591
REMARK  245  A    between atoms: _591  and  _592
REMARK  246  A    between atoms: _597  and  _598
REMARK  247  A    between atoms: _600  and  _602
REMARK  248  A    between atoms: _602  and  _603
REMARK  249  A    between atoms: _602  and  _605
REMARK  250  A    between atoms: _605  and  _606
REMARK                            x       y       z     vdW  Elec       q    Type
REMARK                         _______ _______ _______ _____ _____    ______ ____
ROOT
ATOM      1  O   HOH     1      26.357  12.975 -41.690  0.00  0.00    +0.000 OA
ENDROOT
TORSDOF 0
REMARK  Name = ../refined-set-2016/4x6p/4x6p_pocket.pdb
REMARK  250 active torsions:
REMARK  status: ('A' for Active; 'I' for Inactive)
REMARK    1  A    between atoms: _1  and  _5
REMARK    2  A    between atoms: _5  and  _6
REMARK    3  A    between atoms: _5  and  _8
REMARK    4  A    between atoms: _8  and  _9
REMARK    5  A    between atoms: _12  and  _14
REMARK    6  A    between atoms: _14  and  _15
REMARK    7  A    between atoms: _14  and  _17
REMARK    8  A    between atoms: _20  and  _22
REMARK    9  A    between atoms: _22  and  _23
REMARK   10  A    between atoms: _22  and  _25
REMARK   11  A    between atoms: _25  and  _26
REMARK   12  A    between atoms: _29  and  _31
REMARK   13  A    between atoms: _31  and  _32
REMARK   14  A    between atoms: _31  and  _34
REMARK   15  A    between atoms: _34  and  _35
REMARK   16  A    between atoms: _38  and  _40
REMARK   17  A    between atoms: _40  and  _41
REMARK   18  A    between atoms: _40  and  _43
REMARK   19  A    between atoms: _43  and  _44
REMARK   20  A    between atoms: _49  and  _51
REMARK   21  A    between atoms: _51  and  _52
REMARK   22  A    between atoms: _51  and  _54
REMARK   23  A    between atoms: _54  and  _55
REMARK   24  A    between atoms: _58  and  _60
REMARK   25  A    between atoms: _60  and  _61
REMARK   26  A    between atoms: _60  and  _63
REMARK   27  A    between atoms: _63  and  _64
REMARK   28  A    between atoms: _64  and  _65
REMARK   29  A    between atoms: _70  and  _72
REMARK   30  A    between atoms: _72  and  _73
REMARK   31  A    between atoms: _72  and  _75
REMARK   32  A    between atoms: _75  and  _76
REMARK   33  A    between atoms: _76  and  _77
REMARK   34  A    between atoms: _77  and  _78
REMARK   35  A    between atoms: _87  and  _89
REMARK   36  A    between atoms: _89  and  _90
REMARK   37  A    between atoms: _89  and  _92
REMARK   38  A    between atoms: _92  and  _93
REMARK   39  A    between atoms: _98  and  _100
REMARK   40  A    between atoms: _100  and  _101
REMARK   41  A    between atoms: _100  and  _103
REMARK   42  A    between atoms: _103  and  _104
REMARK   43  A    between atoms: _107  and  _109
REMARK   44  A    between atoms: _109  and  _110
REMARK   45  A    between atoms: _109  and  _112
REMARK   46  A    between atoms: _112  and  _113
REMARK   47  A    between atoms: _113  and  _148
REMARK   48  A    between atoms: _114  and  _116
REMARK   49  A    between atoms: _116  and  _117
REMARK   50  A    between atoms: _119  and  _121
REMARK   51  A    between atoms: _121  and  _122
REMARK   52  A    between atoms: _125  and  _127
REMARK   53  A    between atoms: _127  and  _128
REMARK   54  A    between atoms: _131  and  _133
REMARK   55  A    between atoms: _133  and  _134
REMARK   56  A    between atoms: _133  and  _136
REMARK   57  A    between atoms: _136  and  _137
REMARK   58  A    between atoms: _142  and  _144
REMARK   59  A    between atoms: _144  and  _145
REMARK   60  A    between atoms: _144  and  _147
REMARK   61  A    between atoms: _147  and  _148
REMARK   62  A    between atoms: _149  and  _151
REMARK   63  A    between atoms: _151  and  _152
REMARK   64  A    between atoms: _151  and  _154
REMARK   65  A    between atoms: _154  and  _155
REMARK   66  A    between atoms: _161  and  _163
REMARK   67  A    between atoms: _163  and  _164
REMARK   68  A    between atoms: _163  and  _166
REMARK   69  A    between atoms: _166  and  _167
REMARK   70  A    between atoms: _172  and  _173
REMARK   71  A    between atoms: _175  and  _177
REMARK   72  A    between atoms: _177  and  _178
REMARK   73  A    between atoms: _180  and  _182
REMARK   74  A    between atoms: _182  and  _183
REMARK   75  A    between atoms: _182  and  _185
REMARK   76  A    between atoms: _188  and  _190
REMARK   77  A    between atoms: _190  and  _191
REMARK   78  A    between atoms: _190  and  _193
REMARK   79  A    between atoms: _193  and  _194
REMARK   80  A    between atoms: _194  and  _195
REMARK   81  A    between atoms: _200  and  _202
REMARK   82  A    between atoms: _202  and  _203
REMARK   83  A    between atoms: _202  and  _205
REMARK   84  A    between atoms: _205  and  _206
REMARK   85  A    between atoms: _211  and  _212
REMARK   86  A    between atoms: _214  and  _216
REMARK   87  A    between atoms: _216  and  _217
REMARK   88  A    between atoms: _220  and  _222
REMARK   89  A    between atoms: _222  and  _223
REMARK   90  A    between atoms: _222  and  _225
REMARK   91  A    between atoms: _225  and  _226
REMARK   92  A    between atoms: _229  and  _231
REMARK   93  A    between atoms: _231  and  _232
REMARK   94  A    between atoms: _231  and  _234
REMARK   95  A    between atoms: _237  and  _239
REMARK   96  A    between atoms: _239  and  _240
REMARK   97  A    between atoms: _239  and  _242
REMARK   98  A    between atoms: _242  and  _243
REMARK   99  A    between atoms: _253  and  _255
REMARK  100  A    between atoms: _255  and  _256
REMARK  101  A    between atoms: _258  and  _260
REMARK  102  A    between atoms: _260  and  _261
REMARK  103  A    between atoms: _260  and  _263
REMARK  104  A    between atoms: _263  and  _264
REMARK  105  A    between atoms: _269  and  _270
REMARK  106  A    between atoms: _272  and  _274
REMARK  107  A    between atoms: _274  and  _275
REMARK  108  A    between atoms: _274  and  _277
REMARK  109  A    between atoms: _277  and  _278
REMARK  110  A    between atoms: _278  and  _279
REMARK  111  A    between atoms: _279  and  _280
REMARK  112  A    between atoms: _280  and  _281
REMARK  113  A    between atoms: _285  and  _287
REMARK  114  A    between atoms: _287  and  _288
REMARK  115  A    between atoms: _287  and  _290
REMARK  116  A    between atoms: _290  and  _291
REMARK  117  A    between atoms: _294  and  _296
REMARK  118  A    between atoms: _296  and  _297
REMARK  119  A    between atoms: _296  and  _299
REMARK  120  A    between atoms: _299  and  _300
REMARK  121  A    between atoms: _303  and  _305
REMARK  122  A    between atoms: _305  and  _306
REMARK  123  A    between atoms: _305  and  _308
REMARK  124  A    between atoms: _308  and  _309
REMARK  125  A    between atoms: _309  and  _310
REMARK  126  A    between atoms: _310  and  _311
REMARK  127  A    between atoms: _311  and  _312
REMARK  128  A    between atoms: _316  and  _318
REMARK  129  A    between atoms: _318  and  _319
REMARK  130  A    between atoms: _318  and  _321
REMARK  131  A    between atoms: _321  and  _322
REMARK  132  A    between atoms: _325  and  _327
REMARK  133  A    between atoms: _327  and  _328
REMARK  134  A    between atoms: _327  and  _330
REMARK  135  A    between atoms: _330  and  _331
REMARK  136  A    between atoms: _331  and  _332
REMARK  137  A    between atoms: _337  and  _339
REMARK  138  A    between atoms: _339  and  _340
REMARK  139  A    between atoms: _339  and  _342
REMARK  140  A    between atoms: _342  and  _343
REMARK  141  A    between atoms: _346  and  _348
REMARK  142  A    between atoms: _348  and  _349
REMARK  143  A    between atoms: _348  and  _351
REMARK  144  A    between atoms: _351  and  _352
REMARK  145  A    between atoms: _357  and  _358
REMARK  146  A    between atoms: _360  and  _362
REMARK  147  A    between atoms: _362  and  _363
REMARK  148  A    between atoms: _362  and  _365
REMARK  149  A    between atoms: _365  and  _366
REMARK  150  A    between atoms: _369  and  _371
REMARK  151  A    between atoms: _371  and  _372
REMARK  152  A    between atoms: _371  and  _374
REMARK  153  A    between atoms: _376  and  _378
REMARK  154  A    between atoms: _378  and  _379
REMARK  155  A    between atoms: _382  and  _384
REMARK  156  A    between atoms: _384  and  _385
REMARK  157  A    between atoms: _384  and  _387
REMARK  158  A    between atoms: _387  and  _388
REMARK  159  A    between atoms: _388  and  _389
REMARK  160  A    between atoms: _389  and  _390
REMARK  161  A    between atoms: _390  and  _391
REMARK  162  A    between atoms: _395  and  _397
REMARK  163  A    between atoms: _397  and  _398
REMARK  164  A    between atoms: _397  and  _400
REMARK  165  A    between atoms: _400  and  _401
REMARK  166  A    between atoms: _404  and  _406
REMARK  167  A    between atoms: _406  and  _407
REMARK  168  A    between atoms: _410  and  _412
REMARK  169  A    between atoms: _412  and  _413
REMARK  170  A    between atoms: _412  and  _415
REMARK  171  A    between atoms: _415  and  _416
REMARK  172  A    between atoms: _416  and  _530
REMARK  173  A    between atoms: _417  and  _419
REMARK  174  A    between atoms: _419  and  _420
REMARK  175  A    between atoms: _419  and  _422
REMARK  176  A    between atoms: _422  and  _423
REMARK  177  A    between atoms: _423  and  _424
REMARK  178  A    between atoms: _424  and  _425
REMARK  179  A    between atoms: _425  and  _426
REMARK  180  A    between atoms: _430  and  _432
REMARK  181  A    between atoms: _432  and  _433
REMARK  182  A    between atoms: _435  and  _437
REMARK  183  A    between atoms: _437  and  _438
REMARK  184  A    between atoms: _437  and  _440
REMARK  185  A    between atoms: _440  and  _441
REMARK  186  A    between atoms: _444  and  _446
REMARK  187  A    between atoms: _446  and  _447
REMARK  188  A    between atoms: _446  and  _449
REMARK  189  A    between atoms: _449  and  _450
REMARK  190  A    between atoms: _452  and  _454
REMARK  191  A    between atoms: _454  and  _455
REMARK  192  A    between atoms: _457  and  _459
REMARK  193  A    between atoms: _459  and  _460
REMARK  194  A    between atoms: _462  and  _464
REMARK  195  A    between atoms: _464  and  _465
REMARK  196  A    between atoms: _464  and  _467
REMARK  197  A    between atoms: _467  and  _468
REMARK  198  A    between atoms: _471  and  _473
REMARK  199  A    between atoms: _473  and  _474
REMARK  200  A    between atoms: _473  and  _476
REMARK  201  A    between atoms: _476  and  _477
REMARK  202  A    between atoms: _480  and  _482
REMARK  203  A    between atoms: _482  and  _483
REMARK  204  A    between atoms: _482  and  _485
REMARK  205  A    between atoms: _485  and  _486
REMARK  206  A    between atoms: _488  and  _490
REMARK  207  A    between atoms: _490  and  _491
REMARK  208  A    between atoms: _490  and  _493
REMARK  209  A    between atoms: _493  and  _494
REMARK  210  A    between atoms: _504  and  _506
REMARK  211  A    between atoms: _506  and  _507
REMARK  212  A    between atoms: _509  and  _511
REMARK  213  A    between atoms: _511  and  _512
REMARK  214  A    between atoms: _511  and  _514
REMARK  215  A    between atoms: _514  and  _515
REMARK  216  A    between atoms: _515  and  _516
REMARK  217  A    between atoms: _519  and  _521
REMARK  218  A    between atoms: _521  and  _522
REMARK  219  A    between atoms: _524  and  _526
REMARK  220  A    between atoms: _526  and  _527
REMARK  221  A    between atoms: _526  and  _529
REMARK  222  A    between atoms: _529  and  _530
REMARK  223  A    between atoms: _531  and  _533
REMARK  224  A    between atoms: _533  and  _534
REMARK  225  A    between atoms: _537  and  _539
REMARK  226  A    between atoms: _539  and  _540
REMARK  227  A    between atoms: _539  and  _542
REMARK  228  A    between atoms: _542  and  _543
REMARK  229  A    between atoms: _543  and  _544
REMARK  230  A    between atoms: _549  and  _551
REMARK  231  A    between atoms: _551  and  _552
REMARK  232  A    between atoms: _551  and  _554
REMARK  233  A    between atoms: _554  and  _555
REMARK  234  A    between atoms: _555  and  _556
REMARK  235  A    between atoms: _556  and  _557
REMARK  236  A    between atoms: _567  and  _568
REMARK  237  A    between atoms: _573  and  _575
REMARK  238  A    between atoms: _575  and  _576
REMARK  239  A    between atoms: _578  and  _580
REMARK  240  A    between atoms: _580  and  _581
REMARK  241  A    between atoms: _580  and  _583
REMARK  242  A    between atoms: _586  and  _588
REMARK  243  A    between atoms: _588  and  _589
REMARK  244  A    between atoms: _588  and  _591
REMARK  245  A    between atoms: _591  and  _592
REMARK  246  A    between atoms: _597  and  _598
REMARK  247  A    between atoms: _600  and  _602
REMARK  248  A    between atoms: _602  and  _603
REMARK  249  A    between atoms: _602  and  _605
REMARK  250  A    between atoms: _605  and  _606
REMARK                            x       y       z     vdW  Elec       q    Type
REMARK                         _______ _______ _______ _____ _____    ______ ____
ROOT
ATOM      1  O   HOH     1      17.669  20.824 -45.861  0.00  0.00    +0.000 OA
ENDROOT
TORSDOF 0
REMARK  Name = ../refined-set-2016/4x6p/4x6p_pocket.pdb
REMARK  250 active torsions:
REMARK  status: ('A' for Active; 'I' for Inactive)
REMARK    1  A    between atoms: _1  and  _5
REMARK    2  A    between atoms: _5  and  _6
REMARK    3  A    between atoms: _5  and  _8
REMARK    4  A    between atoms: _8  and  _9
REMARK    5  A    between atoms: _12  and  _14
REMARK    6  A    between atoms: _14  and  _15
REMARK    7  A    between atoms: _14  and  _17
REMARK    8  A    between atoms: _20  and  _22
REMARK    9  A    between atoms: _22  and  _23
REMARK   10  A    between atoms: _22  and  _25
REMARK   11  A    between atoms: _25  and  _26
REMARK   12  A    between atoms: _29  and  _31
REMARK   13  A    between atoms: _31  and  _32
REMARK   14  A    between atoms: _31  and  _34
REMARK   15  A    between atoms: _34  and  _35
REMARK   16  A    between atoms: _38  and  _40
REMARK   17  A    between atoms: _40  and  _41
REMARK   18  A    between atoms: _40  and  _43
REMARK   19  A    between atoms: _43  and  _44
REMARK   20  A    between atoms: _49  and  _51
REMARK   21  A    between atoms: _51  and  _52
REMARK   22  A    between atoms: _51  and  _54
REMARK   23  A    between atoms: _54  and  _55
REMARK   24  A    between atoms: _58  and  _60
REMARK   25  A    between atoms: _60  and  _61
REMARK   26  A    between atoms: _60  and  _63
REMARK   27  A    between atoms: _63  and  _64
REMARK   28  A    between atoms: _64  and  _65
REMARK   29  A    between atoms: _70  and  _72
REMARK   30  A    between atoms: _72  and  _73
REMARK   31  A    between atoms: _72  and  _75
REMARK   32  A    between atoms: _75  and  _76
REMARK   33  A    between atoms: _76  and  _77
REMARK   34  A    between atoms: _77  and  _78
REMARK   35  A    between atoms: _87  and  _89
REMARK   36  A    between atoms: _89  and  _90
REMARK   37  A    between atoms: _89  and  _92
REMARK   38  A    between atoms: _92  and  _93
REMARK   39  A    between atoms: _98  and  _100
REMARK   40  A    between atoms: _100  and  _101
REMARK   41  A    between atoms: _100  and  _103
REMARK   42  A    between atoms: _103  and  _104
REMARK   43  A    between atoms: _107  and  _109
REMARK   44  A    between atoms: _109  and  _110
REMARK   45  A    between atoms: _109  and  _112
REMARK   46  A    between atoms: _112  and  _113
REMARK   47  A    between atoms: _113  and  _148
REMARK   48  A    between atoms: _114  and  _116
REMARK   49  A    between atoms: _116  and  _117
REMARK   50  A    between atoms: _119  and  _121
REMARK   51  A    between atoms: _121  and  _122
REMARK   52  A    between atoms: _125  and  _127
REMARK   53  A    between atoms: _127  and  _128
REMARK   54  A    between atoms: _131  and  _133
REMARK   55  A    between atoms: _133  and  _134
REMARK   56  A    between atoms: _133  and  _136
REMARK   57  A    between atoms: _136  and  _137
REMARK   58  A    between atoms: _142  and  _144
REMARK   59  A    between atoms: _144  and  _145
REMARK   60  A    between atoms: _144  and  _147
REMARK   61  A    between atoms: _147  and  _148
REMARK   62  A    between atoms: _149  and  _151
REMARK   63  A    between atoms: _151  and  _152
REMARK   64  A    between atoms: _151  and  _154
REMARK   65  A    between atoms: _154  and  _155
REMARK   66  A    between atoms: _161  and  _163
REMARK   67  A    between atoms: _163  and  _164
REMARK   68  A    between atoms: _163  and  _166
REMARK   69  A    between atoms: _166  and  _167
REMARK   70  A    between atoms: _172  and  _173
REMARK   71  A    between atoms: _175  and  _177
REMARK   72  A    between atoms: _177  and  _178
REMARK   73  A    between atoms: _180  and  _182
REMARK   74  A    between atoms: _182  and  _183
REMARK   75  A    between atoms: _182  and  _185
REMARK   76  A    between atoms: _188  and  _190
REMARK   77  A    between atoms: _190  and  _191
REMARK   78  A    between atoms: _190  and  _193
REMARK   79  A    between atoms: _193  and  _194
REMARK   80  A    between atoms: _194  and  _195
REMARK   81  A    between atoms: _200  and  _202
REMARK   82  A    between atoms: _202  and  _203
REMARK   83  A    between atoms: _202  and  _205
REMARK   84  A    between atoms: _205  and  _206
REMARK   85  A    between atoms: _211  and  _212
REMARK   86  A    between atoms: _214  and  _216
REMARK   87  A    between atoms: _216  and  _217
REMARK   88  A    between atoms: _220  and  _222
REMARK   89  A    between atoms: _222  and  _223
REMARK   90  A    between atoms: _222  and  _225
REMARK   91  A    between atoms: _225  and  _226
REMARK   92  A    between atoms: _229  and  _231
REMARK   93  A    between atoms: _231  and  _232
REMARK   94  A    between atoms: _231  and  _234
REMARK   95  A    between atoms: _237  and  _239
REMARK   96  A    between atoms: _239  and  _240
REMARK   97  A    between atoms: _239  and  _242
REMARK   98  A    between atoms: _242  and  _243
REMARK   99  A    between atoms: _253  and  _255
REMARK  100  A    between atoms: _255  and  _256
REMARK  101  A    between atoms: _258  and  _260
REMARK  102  A    between atoms: _260  and  _261
REMARK  103  A    between atoms: _260  and  _263
REMARK  104  A    between atoms: _263  and  _264
REMARK  105  A    between atoms: _269  and  _270
REMARK  106  A    between atoms: _272  and  _274
REMARK  107  A    between atoms: _274  and  _275
REMARK  108  A    between atoms: _274  and  _277
REMARK  109  A    between atoms: _277  and  _278
REMARK  110  A    between atoms: _278  and  _279
REMARK  111  A    between atoms: _279  and  _280
REMARK  112  A    between atoms: _280  and  _281
REMARK  113  A    between atoms: _285  and  _287
REMARK  114  A    between atoms: _287  and  _288
REMARK  115  A    between atoms: _287  and  _290
REMARK  116  A    between atoms: _290  and  _291
REMARK  117  A    between atoms: _294  and  _296
REMARK  118  A    between atoms: _296  and  _297
REMARK  119  A    between atoms: _296  and  _299
REMARK  120  A    between atoms: _299  and  _300
REMARK  121  A    between atoms: _303  and  _305
REMARK  122  A    between atoms: _305  and  _306
REMARK  123  A    between atoms: _305  and  _308
REMARK  124  A    between atoms: _308  and  _309
REMARK  125  A    between atoms: _309  and  _310
REMARK  126  A    between atoms: _310  and  _311
REMARK  127  A    between atoms: _311  and  _312
REMARK  128  A    between atoms: _316  and  _318
REMARK  129  A    between atoms: _318  and  _319
REMARK  130  A    between atoms: _318  and  _321
REMARK  131  A    between atoms: _321  and  _322
REMARK  132  A    between atoms: _325  and  _327
REMARK  133  A    between atoms: _327  and  _328
REMARK  134  A    between atoms: _327  and  _330
REMARK  135  A    between atoms: _330  and  _331
REMARK  136  A    between atoms: _331  and  _332
REMARK  137  A    between atoms: _337  and  _339
REMARK  138  A    between atoms: _339  and  _340
REMARK  139  A    between atoms: _339  and  _342
REMARK  140  A    between atoms: _342  and  _343
REMARK  141  A    between atoms: _346  and  _348
REMARK  142  A    between atoms: _348  and  _349
REMARK  143  A    between atoms: _348  and  _351
REMARK  144  A    between atoms: _351  and  _352
REMARK  145  A    between atoms: _357  and  _358
REMARK  146  A    between atoms: _360  and  _362
REMARK  147  A    between atoms: _362  and  _363
REMARK  148  A    between atoms: _362  and  _365
REMARK  149  A    between atoms: _365  and  _366
REMARK  150  A    between atoms: _369  and  _371
REMARK  151  A    between atoms: _371  and  _372
REMARK  152  A    between atoms: _371  and  _374
REMARK  153  A    between atoms: _376  and  _378
REMARK  154  A    between atoms: _378  and  _379
REMARK  155  A    between atoms: _382  and  _384
REMARK  156  A    between atoms: _384  and  _385
REMARK  157  A    between atoms: _384  and  _387
REMARK  158  A    between atoms: _387  and  _388
REMARK  159  A    between atoms: _388  and  _389
REMARK  160  A    between atoms: _389  and  _390
REMARK  161  A    between atoms: _390  and  _391
REMARK  162  A    between atoms: _395  and  _397
REMARK  163  A    between atoms: _397  and  _398
REMARK  164  A    between atoms: _397  and  _400
REMARK  165  A    between atoms: _400  and  _401
REMARK  166  A    between atoms: _404  and  _406
REMARK  167  A    between atoms: _406  and  _407
REMARK  168  A    between atoms: _410  and  _412
REMARK  169  A    between atoms: _412  and  _413
REMARK  170  A    between atoms: _412  and  _415
REMARK  171  A    between atoms: _415  and  _416
REMARK  172  A    between atoms: _416  and  _530
REMARK  173  A    between atoms: _417  and  _419
REMARK  174  A    between atoms: _419  and  _420
REMARK  175  A    between atoms: _419  and  _422
REMARK  176  A    between atoms: _422  and  _423
REMARK  177  A    between atoms: _423  and  _424
REMARK  178  A    between atoms: _424  and  _425
REMARK  179  A    between atoms: _425  and  _426
REMARK  180  A    between atoms: _430  and  _432
REMARK  181  A    between atoms: _432  and  _433
REMARK  182  A    between atoms: _435  and  _437
REMARK  183  A    between atoms: _437  and  _438
REMARK  184  A    between atoms: _437  and  _440
REMARK  185  A    between atoms: _440  and  _441
REMARK  186  A    between atoms: _444  and  _446
REMARK  187  A    between atoms: _446  and  _447
REMARK  188  A    between atoms: _446  and  _449
REMARK  189  A    between atoms: _449  and  _450
REMARK  190  A    between atoms: _452  and  _454
REMARK  191  A    between atoms: _454  and  _455
REMARK  192  A    between atoms: _457  and  _459
REMARK  193  A    between atoms: _459  and  _460
REMARK  194  A    between atoms: _462  and  _464
REMARK  195  A    between atoms: _464  and  _465
REMARK  196  A    between atoms: _464  and  _467
REMARK  197  A    between atoms: _467  and  _468
REMARK  198  A    between atoms: _471  and  _473
REMARK  199  A    between atoms: _473  and  _474
REMARK  200  A    between atoms: _473  and  _476
REMARK  201  A    between atoms: _476  and  _477
REMARK  202  A    between atoms: _480  and  _482
REMARK  203  A    between atoms: _482  and  _483
REMARK  204  A    between atoms: _482  and  _485
REMARK  205  A    between atoms: _485  and  _486
REMARK  206  A    between atoms: _488  and  _490
REMARK  207  A    between atoms: _490  and  _491
REMARK  208  A    between atoms: _490  and  _493
REMARK  209  A    between atoms: _493  and  _494
REMARK  210  A    between atoms: _504  and  _506
REMARK  211  A    between atoms: _506  and  _507
REMARK  212  A    between atoms: _509  and  _511
REMARK  213  A    between atoms: _511  and  _512
REMARK  214  A    between atoms: _511  and  _514
REMARK  215  A    between atoms: _514  and  _515
REMARK  216  A    between atoms: _515  and  _516
REMARK  217  A    between atoms: _519  and  _521
REMARK  218  A    between atoms: _521  and  _522
REMARK  219  A    between atoms: _524  and  _526
REMARK  220  A    between atoms: _526  and  _527
REMARK  221  A    between atoms: _526  and  _529
REMARK  222  A    between atoms: _529  and  _530
REMARK  223  A    between atoms: _531  and  _533
REMARK  224  A    between atoms: _533  and  _534
REMARK  225  A    between atoms: _537  and  _539
REMARK  226  A    between atoms: _539  and  _540
REMARK  227  A    between atoms: _539  and  _542
REMARK  228  A    between atoms: _542  and  _543
REMARK  229  A    between atoms: _543  and  _544
REMARK  230  A    between atoms: _549  and  _551
REMARK  231  A    between atoms: _551  and  _552
REMARK  232  A    between atoms: _551  and  _554
REMARK  233  A    between atoms: _554  and  _555
REMARK  234  A    between atoms: _555  and  _556
REMARK  235  A    between atoms: _556  and  _557
REMARK  236  A    between atoms: _567  and  _568
REMARK  237  A    between atoms: _573  and  _575
REMARK  238  A    between atoms: _575  and  _576
REMARK  239  A    between atoms: _578  and  _580
REMARK  240  A    between atoms: _580  and  _581
REMARK  241  A    between atoms: _580  and  _583
REMARK  242  A    between atoms: _586  and  _588
REMARK  243  A    between atoms: _588  and  _589
REMARK  244  A    between atoms: _588  and  _591
REMARK  245  A    between atoms: _591  and  _592
REMARK  246  A    between atoms: _597  and  _598
REMARK  247  A    between atoms: _600  and  _602
REMARK  248  A    between atoms: _602  and  _603
REMARK  249  A    between atoms: _602  and  _605
REMARK  250  A    between atoms: _605  and  _606
REMARK                            x       y       z     vdW  Elec       q    Type
REMARK                         _______ _______ _______ _____ _____    ______ ____
ROOT
ATOM      1  O   HOH     1       9.349  30.393 -38.190  0.00  0.00    +0.000 OA
ENDROOT
TORSDOF 0
REMARK  Name = ../refined-set-2016/4x6p/4x6p_pocket.pdb
REMARK  250 active torsions:
REMARK  status: ('A' for Active; 'I' for Inactive)
REMARK    1  A    between atoms: _1  and  _5
REMARK    2  A    between atoms: _5  and  _6
REMARK    3  A    between atoms: _5  and  _8
REMARK    4  A    between atoms: _8  and  _9
REMARK    5  A    between atoms: _12  and  _14
REMARK    6  A    between atoms: _14  and  _15
REMARK    7  A    between atoms: _14  and  _17
REMARK    8  A    between atoms: _20  and  _22
REMARK    9  A    between atoms: _22  and  _23
REMARK   10  A    between atoms: _22  and  _25
REMARK   11  A    between atoms: _25  and  _26
REMARK   12  A    between atoms: _29  and  _31
REMARK   13  A    between atoms: _31  and  _32
REMARK   14  A    between atoms: _31  and  _34
REMARK   15  A    between atoms: _34  and  _35
REMARK   16  A    between atoms: _38  and  _40
REMARK   17  A    between atoms: _40  and  _41
REMARK   18  A    between atoms: _40  and  _43
REMARK   19  A    between atoms: _43  and  _44
REMARK   20  A    between atoms: _49  and  _51
REMARK   21  A    between atoms: _51  and  _52
REMARK   22  A    between atoms: _51  and  _54
REMARK   23  A    between atoms: _54  and  _55
REMARK   24  A    between atoms: _58  and  _60
REMARK   25  A    between atoms: _60  and  _61
REMARK   26  A    between atoms: _60  and  _63
REMARK   27  A    between atoms: _63  and  _64
REMARK   28  A    between atoms: _64  and  _65
REMARK   29  A    between atoms: _70  and  _72
REMARK   30  A    between atoms: _72  and  _73
REMARK   31  A    between atoms: _72  and  _75
REMARK   32  A    between atoms: _75  and  _76
REMARK   33  A    between atoms: _76  and  _77
REMARK   34  A    between atoms: _77  and  _78
REMARK   35  A    between atoms: _87  and  _89
REMARK   36  A    between atoms: _89  and  _90
REMARK   37  A    between atoms: _89  and  _92
REMARK   38  A    between atoms: _92  and  _93
REMARK   39  A    between atoms: _98  and  _100
REMARK   40  A    between atoms: _100  and  _101
REMARK   41  A    between atoms: _100  and  _103
REMARK   42  A    between atoms: _103  and  _104
REMARK   43  A    between atoms: _107  and  _109
REMARK   44  A    between atoms: _109  and  _110
REMARK   45  A    between atoms: _109  and  _112
REMARK   46  A    between atoms: _112  and  _113
REMARK   47  A    between atoms: _113  and  _148
REMARK   48  A    between atoms: _114  and  _116
REMARK   49  A    between atoms: _116  and  _117
REMARK   50  A    between atoms: _119  and  _121
REMARK   51  A    between atoms: _121  and  _122
REMARK   52  A    between atoms: _125  and  _127
REMARK   53  A    between atoms: _127  and  _128
REMARK   54  A    between atoms: _131  and  _133
REMARK   55  A    between atoms: _133  and  _134
REMARK   56  A    between atoms: _133  and  _136
REMARK   57  A    between atoms: _136  and  _137
REMARK   58  A    between atoms: _142  and  _144
REMARK   59  A    between atoms: _144  and  _145
REMARK   60  A    between atoms: _144  and  _147
REMARK   61  A    between atoms: _147  and  _148
REMARK   62  A    between atoms: _149  and  _151
REMARK   63  A    between atoms: _151  and  _152
REMARK   64  A    between atoms: _151  and  _154
REMARK   65  A    between atoms: _154  and  _155
REMARK   66  A    between atoms: _161  and  _163
REMARK   67  A    between atoms: _163  and  _164
REMARK   68  A    between atoms: _163  and  _166
REMARK   69  A    between atoms: _166  and  _167
REMARK   70  A    between atoms: _172  and  _173
REMARK   71  A    between atoms: _175  and  _177
REMARK   72  A    between atoms: _177  and  _178
REMARK   73  A    between atoms: _180  and  _182
REMARK   74  A    between atoms: _182  and  _183
REMARK   75  A    between atoms: _182  and  _185
REMARK   76  A    between atoms: _188  and  _190
REMARK   77  A    between atoms: _190  and  _191
REMARK   78  A    between atoms: _190  and  _193
REMARK   79  A    between atoms: _193  and  _194
REMARK   80  A    between atoms: _194  and  _195
REMARK   81  A    between atoms: _200  and  _202
REMARK   82  A    between atoms: _202  and  _203
REMARK   83  A    between atoms: _202  and  _205
REMARK   84  A    between atoms: _205  and  _206
REMARK   85  A    between atoms: _211  and  _212
REMARK   86  A    between atoms: _214  and  _216
REMARK   87  A    between atoms: _216  and  _217
REMARK   88  A    between atoms: _220  and  _222
REMARK   89  A    between atoms: _222  and  _223
REMARK   90  A    between atoms: _222  and  _225
REMARK   91  A    between atoms: _225  and  _226
REMARK   92  A    between atoms: _229  and  _231
REMARK   93  A    between atoms: _231  and  _232
REMARK   94  A    between atoms: _231  and  _234
REMARK   95  A    between atoms: _237  and  _239
REMARK   96  A    between atoms: _239  and  _240
REMARK   97  A    between atoms: _239  and  _242
REMARK   98  A    between atoms: _242  and  _243
REMARK   99  A    between atoms: _253  and  _255
REMARK  100  A    between atoms: _255  and  _256
REMARK  101  A    between atoms: _258  and  _260
REMARK  102  A    between atoms: _260  and  _261
REMARK  103  A    between atoms: _260  and  _263
REMARK  104  A    between atoms: _263  and  _264
REMARK  105  A    between atoms: _269  and  _270
REMARK  106  A    between atoms: _272  and  _274
REMARK  107  A    between atoms: _274  and  _275
REMARK  108  A    between atoms: _274  and  _277
REMARK  109  A    between atoms: _277  and  _278
REMARK  110  A    between atoms: _278  and  _279
REMARK  111  A    between atoms: _279  and  _280
REMARK  112  A    between atoms: _280  and  _281
REMARK  113  A    between atoms: _285  and  _287
REMARK  114  A    between atoms: _287  and  _288
REMARK  115  A    between atoms: _287  and  _290
REMARK  116  A    between atoms: _290  and  _291
REMARK  117  A    between atoms: _294  and  _296
REMARK  118  A    between atoms: _296  and  _297
REMARK  119  A    between atoms: _296  and  _299
REMARK  120  A    between atoms: _299  and  _300
REMARK  121  A    between atoms: _303  and  _305
REMARK  122  A    between atoms: _305  and  _306
REMARK  123  A    between atoms: _305  and  _308
REMARK  124  A    between atoms: _308  and  _309
REMARK  125  A    between atoms: _309  and  _310
REMARK  126  A    between atoms: _310  and  _311
REMARK  127  A    between atoms: _311  and  _312
REMARK  128  A    between atoms: _316  and  _318
REMARK  129  A    between atoms: _318  and  _319
REMARK  130  A    between atoms: _318  and  _321
REMARK  131  A    between atoms: _321  and  _322
REMARK  132  A    between atoms: _325  and  _327
REMARK  133  A    between atoms: _327  and  _328
REMARK  134  A    between atoms: _327  and  _330
REMARK  135  A    between atoms: _330  and  _331
REMARK  136  A    between atoms: _331  and  _332
REMARK  137  A    between atoms: _337  and  _339
REMARK  138  A    between atoms: _339  and  _340
REMARK  139  A    between atoms: _339  and  _342
REMARK  140  A    between atoms: _342  and  _343
REMARK  141  A    between atoms: _346  and  _348
REMARK  142  A    between atoms: _348  and  _349
REMARK  143  A    between atoms: _348  and  _351
REMARK  144  A    between atoms: _351  and  _352
REMARK  145  A    between atoms: _357  and  _358
REMARK  146  A    between atoms: _360  and  _362
REMARK  147  A    between atoms: _362  and  _363
REMARK  148  A    between atoms: _362  and  _365
REMARK  149  A    between atoms: _365  and  _366
REMARK  150  A    between atoms: _369  and  _371
REMARK  151  A    between atoms: _371  and  _372
REMARK  152  A    between atoms: _371  and  _374
REMARK  153  A    between atoms: _376  and  _378
REMARK  154  A    between atoms: _378  and  _379
REMARK  155  A    between atoms: _382  and  _384
REMARK  156  A    between atoms: _384  and  _385
REMARK  157  A    between atoms: _384  and  _387
REMARK  158  A    between atoms: _387  and  _388
REMARK  159  A    between atoms: _388  and  _389
REMARK  160  A    between atoms: _389  and  _390
REMARK  161  A    between atoms: _390  and  _391
REMARK  162  A    between atoms: _395  and  _397
REMARK  163  A    between atoms: _397  and  _398
REMARK  164  A    between atoms: _397  and  _400
REMARK  165  A    between atoms: _400  and  _401
REMARK  166  A    between atoms: _404  and  _406
REMARK  167  A    between atoms: _406  and  _407
REMARK  168  A    between atoms: _410  and  _412
REMARK  169  A    between atoms: _412  and  _413
REMARK  170  A    between atoms: _412  and  _415
REMARK  171  A    between atoms: _415  and  _416
REMARK  172  A    between atoms: _416  and  _530
REMARK  173  A    between atoms: _417  and  _419
REMARK  174  A    between atoms: _419  and  _420
REMARK  175  A    between atoms: _419  and  _422
REMARK  176  A    between atoms: _422  and  _423
REMARK  177  A    between atoms: _423  and  _424
REMARK  178  A    between atoms: _424  and  _425
REMARK  179  A    between atoms: _425  and  _426
REMARK  180  A    between atoms: _430  and  _432
REMARK  181  A    between atoms: _432  and  _433
REMARK  182  A    between atoms: _435  and  _437
REMARK  183  A    between atoms: _437  and  _438
REMARK  184  A    between atoms: _437  and  _440
REMARK  185  A    between atoms: _440  and  _441
REMARK  186  A    between atoms: _444  and  _446
REMARK  187  A    between atoms: _446  and  _447
REMARK  188  A    between atoms: _446  and  _449
REMARK  189  A    between atoms: _449  and  _450
REMARK  190  A    between atoms: _452  and  _454
REMARK  191  A    between atoms: _454  and  _455
REMARK  192  A    between atoms: _457  and  _459
REMARK  193  A    between atoms: _459  and  _460
REMARK  194  A    between atoms: _462  and  _464
REMARK  195  A    between atoms: _464  and  _465
REMARK  196  A    between atoms: _464  and  _467
REMARK  197  A    between atoms: _467  and  _468
REMARK  198  A    between atoms: _471  and  _473
REMARK  199  A    between atoms: _473  and  _474
REMARK  200  A    between atoms: _473  and  _476
REMARK  201  A    between atoms: _476  and  _477
REMARK  202  A    between atoms: _480  and  _482
REMARK  203  A    between atoms: _482  and  _483
REMARK  204  A    between atoms: _482  and  _485
REMARK  205  A    between atoms: _485  and  _486
REMARK  206  A    between atoms: _488  and  _490
REMARK  207  A    between atoms: _490  and  _491
REMARK  208  A    between atoms: _490  and  _493
REMARK  209  A    between atoms: _493  and  _494
REMARK  210  A    between atoms: _504  and  _506
REMARK  211  A    between atoms: _506  and  _507
REMARK  212  A    between atoms: _509  and  _511
REMARK  213  A    between atoms: _511  and  _512
REMARK  214  A    between atoms: _511  and  _514
REMARK  215  A    between atoms: _514  and  _515
REMARK  216  A    between atoms: _515  and  _516
REMARK  217  A    between atoms: _519  and  _521
REMARK  218  A    between atoms: _521  and  _522
REMARK  219  A    between atoms: _524  and  _526
REMARK  220  A    between atoms: _526  and  _527
REMARK  221  A    between atoms: _526  and  _529
REMARK  222  A    between atoms: _529  and  _530
REMARK  223  A    between atoms: _531  and  _533
REMARK  224  A    between atoms: _533  and  _534
REMARK  225  A    between atoms: _537  and  _539
REMARK  226  A    between atoms: _539  and  _540
REMARK  227  A    between atoms: _539  and  _542
REMARK  228  A    between atoms: _542  and  _543
REMARK  229  A    between atoms: _543  and  _544
REMARK  230  A    between atoms: _549  and  _551
REMARK  231  A    between atoms: _551  and  _552
REMARK  232  A    between atoms: _551  and  _554
REMARK  233  A    between atoms: _554  and  _555
REMARK  234  A    between atoms: _555  and  _556
REMARK  235  A    between atoms: _556  and  _557
REMARK  236  A    between atoms: _567  and  _568
REMARK  237  A    between atoms: _573  and  _575
REMARK  238  A    between atoms: _575  and  _576
REMARK  239  A    between atoms: _578  and  _580
REMARK  240  A    between atoms: _580  and  _581
REMARK  241  A    between atoms: _580  and  _583
REMARK  242  A    between atoms: _586  and  _588
REMARK  243  A    between atoms: _588  and  _589
REMARK  244  A    between atoms: _588  and  _591
REMARK  245  A    between atoms: _591  and  _592
REMARK  246  A    between atoms: _597  and  _598
REMARK  247  A    between atoms: _600  and  _602
REMARK  248  A    between atoms: _602  and  _603
REMARK  249  A    between atoms: _602  and  _605
REMARK  250  A    between atoms: _605  and  _606
REMARK                            x       y       z     vdW  Elec       q    Type
REMARK                         _______ _______ _______ _____ _____    ______ ____
ROOT
ATOM      1  O   HOH     1      15.691  15.813 -46.902  0.00  0.00    +0.000 OA
ENDROOT
TORSDOF 0
REMARK  Name = ../refined-set-2016/4x6p/4x6p_pocket.pdb
REMARK  250 active torsions:
REMARK  status: ('A' for Active; 'I' for Inactive)
REMARK    1  A    between atoms: _1  and  _5
REMARK    2  A    between atoms: _5  and  _6
REMARK    3  A    between atoms: _5  and  _8
REMARK    4  A    between atoms: _8  and  _9
REMARK    5  A    between atoms: _12  and  _14
REMARK    6  A    between atoms: _14  and  _15
REMARK    7  A    between atoms: _14  and  _17
REMARK    8  A    between atoms: _20  and  _22
REMARK    9  A    between atoms: _22  and  _23
REMARK   10  A    between atoms: _22  and  _25
REMARK   11  A    between atoms: _25  and  _26
REMARK   12  A    between atoms: _29  and  _31
REMARK   13  A    between atoms: _31  and  _32
REMARK   14  A    between atoms: _31  and  _34
REMARK   15  A    between atoms: _34  and  _35
REMARK   16  A    between atoms: _38  and  _40
REMARK   17  A    between atoms: _40  and  _41
REMARK   18  A    between atoms: _40  and  _43
REMARK   19  A    between atoms: _43  and  _44
REMARK   20  A    between atoms: _49  and  _51
REMARK   21  A    between atoms: _51  and  _52
REMARK   22  A    between atoms: _51  and  _54
REMARK   23  A    between atoms: _54  and  _55
REMARK   24  A    between atoms: _58  and  _60
REMARK   25  A    between atoms: _60  and  _61
REMARK   26  A    between atoms: _60  and  _63
REMARK   27  A    between atoms: _63  and  _64
REMARK   28  A    between atoms: _64  and  _65
REMARK   29  A    between atoms: _70  and  _72
REMARK   30  A    between atoms: _72  and  _73
REMARK   31  A    between atoms: _72  and  _75
REMARK   32  A    between atoms: _75  and  _76
REMARK   33  A    between atoms: _76  and  _77
REMARK   34  A    between atoms: _77  and  _78
REMARK   35  A    between atoms: _87  and  _89
REMARK   36  A    between atoms: _89  and  _90
REMARK   37  A    between atoms: _89  and  _92
REMARK   38  A    between atoms: _92  and  _93
REMARK   39  A    between atoms: _98  and  _100
REMARK   40  A    between atoms: _100  and  _101
REMARK   41  A    between atoms: _100  and  _103
REMARK   42  A    between atoms: _103  and  _104
REMARK   43  A    between atoms: _107  and  _109
REMARK   44  A    between atoms: _109  and  _110
REMARK   45  A    between atoms: _109  and  _112
REMARK   46  A    between atoms: _112  and  _113
REMARK   47  A    between atoms: _113  and  _148
REMARK   48  A    between atoms: _114  and  _116
REMARK   49  A    between atoms: _116  and  _117
REMARK   50  A    between atoms: _119  and  _121
REMARK   51  A    between atoms: _121  and  _122
REMARK   52  A    between atoms: _125  and  _127
REMARK   53  A    between atoms: _127  and  _128
REMARK   54  A    between atoms: _131  and  _133
REMARK   55  A    between atoms: _133  and  _134
REMARK   56  A    between atoms: _133  and  _136
REMARK   57  A    between atoms: _136  and  _137
REMARK   58  A    between atoms: _142  and  _144
REMARK   59  A    between atoms: _144  and  _145
REMARK   60  A    between atoms: _144  and  _147
REMARK   61  A    between atoms: _147  and  _148
REMARK   62  A    between atoms: _149  and  _151
REMARK   63  A    between atoms: _151  and  _152
REMARK   64  A    between atoms: _151  and  _154
REMARK   65  A    between atoms: _154  and  _155
REMARK   66  A    between atoms: _161  and  _163
REMARK   67  A    between atoms: _163  and  _164
REMARK   68  A    between atoms: _163  and  _166
REMARK   69  A    between atoms: _166  and  _167
REMARK   70  A    between atoms: _172  and  _173
REMARK   71  A    between atoms: _175  and  _177
REMARK   72  A    between atoms: _177  and  _178
REMARK   73  A    between atoms: _180  and  _182
REMARK   74  A    between atoms: _182  and  _183
REMARK   75  A    between atoms: _182  and  _185
REMARK   76  A    between atoms: _188  and  _190
REMARK   77  A    between atoms: _190  and  _191
REMARK   78  A    between atoms: _190  and  _193
REMARK   79  A    between atoms: _193  and  _194
REMARK   80  A    between atoms: _194  and  _195
REMARK   81  A    between atoms: _200  and  _202
REMARK   82  A    between atoms: _202  and  _203
REMARK   83  A    between atoms: _202  and  _205
REMARK   84  A    between atoms: _205  and  _206
REMARK   85  A    between atoms: _211  and  _212
REMARK   86  A    between atoms: _214  and  _216
REMARK   87  A    between atoms: _216  and  _217
REMARK   88  A    between atoms: _220  and  _222
REMARK   89  A    between atoms: _222  and  _223
REMARK   90  A    between atoms: _222  and  _225
REMARK   91  A    between atoms: _225  and  _226
REMARK   92  A    between atoms: _229  and  _231
REMARK   93  A    between atoms: _231  and  _232
REMARK   94  A    between atoms: _231  and  _234
REMARK   95  A    between atoms: _237  and  _239
REMARK   96  A    between atoms: _239  and  _240
REMARK   97  A    between atoms: _239  and  _242
REMARK   98  A    between atoms: _242  and  _243
REMARK   99  A    between atoms: _253  and  _255
REMARK  100  A    between atoms: _255  and  _256
REMARK  101  A    between atoms: _258  and  _260
REMARK  102  A    between atoms: _260  and  _261
REMARK  103  A    between atoms: _260  and  _263
REMARK  104  A    between atoms: _263  and  _264
REMARK  105  A    between atoms: _269  and  _270
REMARK  106  A    between atoms: _272  and  _274
REMARK  107  A    between atoms: _274  and  _275
REMARK  108  A    between atoms: _274  and  _277
REMARK  109  A    between atoms: _277  and  _278
REMARK  110  A    between atoms: _278  and  _279
REMARK  111  A    between atoms: _279  and  _280
REMARK  112  A    between atoms: _280  and  _281
REMARK  113  A    between atoms: _285  and  _287
REMARK  114  A    between atoms: _287  and  _288
REMARK  115  A    between atoms: _287  and  _290
REMARK  116  A    between atoms: _290  and  _291
REMARK  117  A    between atoms: _294  and  _296
REMARK  118  A    between atoms: _296  and  _297
REMARK  119  A    between atoms: _296  and  _299
REMARK  120  A    between atoms: _299  and  _300
REMARK  121  A    between atoms: _303  and  _305
REMARK  122  A    between atoms: _305  and  _306
REMARK  123  A    between atoms: _305  and  _308
REMARK  124  A    between atoms: _308  and  _309
REMARK  125  A    between atoms: _309  and  _310
REMARK  126  A    between atoms: _310  and  _311
REMARK  127  A    between atoms: _311  and  _312
REMARK  128  A    between atoms: _316  and  _318
REMARK  129  A    between atoms: _318  and  _319
REMARK  130  A    between atoms: _318  and  _321
REMARK  131  A    between atoms: _321  and  _322
REMARK  132  A    between atoms: _325  and  _327
REMARK  133  A    between atoms: _327  and  _328
REMARK  134  A    between atoms: _327  and  _330
REMARK  135  A    between atoms: _330  and  _331
REMARK  136  A    between atoms: _331  and  _332
REMARK  137  A    between atoms: _337  and  _339
REMARK  138  A    between atoms: _339  and  _340
REMARK  139  A    between atoms: _339  and  _342
REMARK  140  A    between atoms: _342  and  _343
REMARK  141  A    between atoms: _346  and  _348
REMARK  142  A    between atoms: _348  and  _349
REMARK  143  A    between atoms: _348  and  _351
REMARK  144  A    between atoms: _351  and  _352
REMARK  145  A    between atoms: _357  and  _358
REMARK  146  A    between atoms: _360  and  _362
REMARK  147  A    between atoms: _362  and  _363
REMARK  148  A    between atoms: _362  and  _365
REMARK  149  A    between atoms: _365  and  _366
REMARK  150  A    between atoms: _369  and  _371
REMARK  151  A    between atoms: _371  and  _372
REMARK  152  A    between atoms: _371  and  _374
REMARK  153  A    between atoms: _376  and  _378
REMARK  154  A    between atoms: _378  and  _379
REMARK  155  A    between atoms: _382  and  _384
REMARK  156  A    between atoms: _384  and  _385
REMARK  157  A    between atoms: _384  and  _387
REMARK  158  A    between atoms: _387  and  _388
REMARK  159  A    between atoms: _388  and  _389
REMARK  160  A    between atoms: _389  and  _390
REMARK  161  A    between atoms: _390  and  _391
REMARK  162  A    between atoms: _395  and  _397
REMARK  163  A    between atoms: _397  and  _398
REMARK  164  A    between atoms: _397  and  _400
REMARK  165  A    between atoms: _400  and  _401
REMARK  166  A    between atoms: _404  and  _406
REMARK  167  A    between atoms: _406  and  _407
REMARK  168  A    between atoms: _410  and  _412
REMARK  169  A    between atoms: _412  and  _413
REMARK  170  A    between atoms: _412  and  _415
REMARK  171  A    between atoms: _415  and  _416
REMARK  172  A    between atoms: _416  and  _530
REMARK  173  A    between atoms: _417  and  _419
REMARK  174  A    between atoms: _419  and  _420
REMARK  175  A    between atoms: _419  and  _422
REMARK  176  A    between atoms: _422  and  _423
REMARK  177  A    between atoms: _423  and  _424
REMARK  178  A    between atoms: _424  and  _425
REMARK  179  A    between atoms: _425  and  _426
REMARK  180  A    between atoms: _430  and  _432
REMARK  181  A    between atoms: _432  and  _433
REMARK  182  A    between atoms: _435  and  _437
REMARK  183  A    between atoms: _437  and  _438
REMARK  184  A    between atoms: _437  and  _440
REMARK  185  A    between atoms: _440  and  _441
REMARK  186  A    between atoms: _444  and  _446
REMARK  187  A    between atoms: _446  and  _447
REMARK  188  A    between atoms: _446  and  _449
REMARK  189  A    between atoms: _449  and  _450
REMARK  190  A    between atoms: _452  and  _454
REMARK  191  A    between atoms: _454  and  _455
REMARK  192  A    between atoms: _457  and  _459
REMARK  193  A    between atoms: _459  and  _460
REMARK  194  A    between atoms: _462  and  _464
REMARK  195  A    between atoms: _464  and  _465
REMARK  196  A    between atoms: _464  and  _467
REMARK  197  A    between atoms: _467  and  _468
REMARK  198  A    between atoms: _471  and  _473
REMARK  199  A    between atoms: _473  and  _474
REMARK  200  A    between atoms: _473  and  _476
REMARK  201  A    between atoms: _476  and  _477
REMARK  202  A    between atoms: _480  and  _482
REMARK  203  A    between atoms: _482  and  _483
REMARK  204  A    between atoms: _482  and  _485
REMARK  205  A    between atoms: _485  and  _486
REMARK  206  A    between atoms: _488  and  _490
REMARK  207  A    between atoms: _490  and  _491
REMARK  208  A    between atoms: _490  and  _493
REMARK  209  A    between atoms: _493  and  _494
REMARK  210  A    between atoms: _504  and  _506
REMARK  211  A    between atoms: _506  and  _507
REMARK  212  A    between atoms: _509  and  _511
REMARK  213  A    between atoms: _511  and  _512
REMARK  214  A    between atoms: _511  and  _514
REMARK  215  A    between atoms: _514  and  _515
REMARK  216  A    between atoms: _515  and  _516
REMARK  217  A    between atoms: _519  and  _521
REMARK  218  A    between atoms: _521  and  _522
REMARK  219  A    between atoms: _524  and  _526
REMARK  220  A    between atoms: _526  and  _527
REMARK  221  A    between atoms: _526  and  _529
REMARK  222  A    between atoms: _529  and  _530
REMARK  223  A    between atoms: _531  and  _533
REMARK  224  A    between atoms: _533  and  _534
REMARK  225  A    between atoms: _537  and  _539
REMARK  226  A    between atoms: _539  and  _540
REMARK  227  A    between atoms: _539  and  _542
REMARK  228  A    between atoms: _542  and  _543
REMARK  229  A    between atoms: _543  and  _544
REMARK  230  A    between atoms: _549  and  _551
REMARK  231  A    between atoms: _551  and  _552
REMARK  232  A    between atoms: _551  and  _554
REMARK  233  A    between atoms: _554  and  _555
REMARK  234  A    between atoms: _555  and  _556
REMARK  235  A    between atoms: _556  and  _557
REMARK  236  A    between atoms: _567  and  _568
REMARK  237  A    between atoms: _573  and  _575
REMARK  238  A    between atoms: _575  and  _576
REMARK  239  A    between atoms: _578  and  _580
REMARK  240  A    between atoms: _580  and  _581
REMARK  241  A    between atoms: _580  and  _583
REMARK  242  A    between atoms: _586  and  _588
REMARK  243  A    between atoms: _588  and  _589
REMARK  244  A    between atoms: _588  and  _591
REMARK  245  A    between atoms: _591  and  _592
REMARK  246  A    between atoms: _597  and  _598
REMARK  247  A    between atoms: _600  and  _602
REMARK  248  A    between atoms: _602  and  _603
REMARK  249  A    between atoms: _602  and  _605
REMARK  250  A    between atoms: _605  and  _606
REMARK                            x       y       z     vdW  Elec       q    Type
REMARK                         _______ _______ _______ _____ _____    ______ ____
ROOT
ATOM      1  O   HOH     1      13.998  26.742 -42.710  0.00  0.00    +0.000 OA
ENDROOT
TORSDOF 0
REMARK  Name = ../refined-set-2016/4x6p/4x6p_pocket.pdb
REMARK  250 active torsions:
REMARK  status: ('A' for Active; 'I' for Inactive)
REMARK    1  A    between atoms: _1  and  _5
REMARK    2  A    between atoms: _5  and  _6
REMARK    3  A    between atoms: _5  and  _8
REMARK    4  A    between atoms: _8  and  _9
REMARK    5  A    between atoms: _12  and  _14
REMARK    6  A    between atoms: _14  and  _15
REMARK    7  A    between atoms: _14  and  _17
REMARK    8  A    between atoms: _20  and  _22
REMARK    9  A    between atoms: _22  and  _23
REMARK   10  A    between atoms: _22  and  _25
REMARK   11  A    between atoms: _25  and  _26
REMARK   12  A    between atoms: _29  and  _31
REMARK   13  A    between atoms: _31  and  _32
REMARK   14  A    between atoms: _31  and  _34
REMARK   15  A    between atoms: _34  and  _35
REMARK   16  A    between atoms: _38  and  _40
REMARK   17  A    between atoms: _40  and  _41
REMARK   18  A    between atoms: _40  and  _43
REMARK   19  A    between atoms: _43  and  _44
REMARK   20  A    between atoms: _49  and  _51
REMARK   21  A    between atoms: _51  and  _52
REMARK   22  A    between atoms: _51  and  _54
REMARK   23  A    between atoms: _54  and  _55
REMARK   24  A    between atoms: _58  and  _60
REMARK   25  A    between atoms: _60  and  _61
REMARK   26  A    between atoms: _60  and  _63
REMARK   27  A    between atoms: _63  and  _64
REMARK   28  A    between atoms: _64  and  _65
REMARK   29  A    between atoms: _70  and  _72
REMARK   30  A    between atoms: _72  and  _73
REMARK   31  A    between atoms: _72  and  _75
REMARK   32  A    between atoms: _75  and  _76
REMARK   33  A    between atoms: _76  and  _77
REMARK   34  A    between atoms: _77  and  _78
REMARK   35  A    between atoms: _87  and  _89
REMARK   36  A    between atoms: _89  and  _90
REMARK   37  A    between atoms: _89  and  _92
REMARK   38  A    between atoms: _92  and  _93
REMARK   39  A    between atoms: _98  and  _100
REMARK   40  A    between atoms: _100  and  _101
REMARK   41  A    between atoms: _100  and  _103
REMARK   42  A    between atoms: _103  and  _104
REMARK   43  A    between atoms: _107  and  _109
REMARK   44  A    between atoms: _109  and  _110
REMARK   45  A    between atoms: _109  and  _112
REMARK   46  A    between atoms: _112  and  _113
REMARK   47  A    between atoms: _113  and  _148
REMARK   48  A    between atoms: _114  and  _116
REMARK   49  A    between atoms: _116  and  _117
REMARK   50  A    between atoms: _119  and  _121
REMARK   51  A    between atoms: _121  and  _122
REMARK   52  A    between atoms: _125  and  _127
REMARK   53  A    between atoms: _127  and  _128
REMARK   54  A    between atoms: _131  and  _133
REMARK   55  A    between atoms: _133  and  _134
REMARK   56  A    between atoms: _133  and  _136
REMARK   57  A    between atoms: _136  and  _137
REMARK   58  A    between atoms: _142  and  _144
REMARK   59  A    between atoms: _144  and  _145
REMARK   60  A    between atoms: _144  and  _147
REMARK   61  A    between atoms: _147  and  _148
REMARK   62  A    between atoms: _149  and  _151
REMARK   63  A    between atoms: _151  and  _152
REMARK   64  A    between atoms: _151  and  _154
REMARK   65  A    between atoms: _154  and  _155
REMARK   66  A    between atoms: _161  and  _163
REMARK   67  A    between atoms: _163  and  _164
REMARK   68  A    between atoms: _163  and  _166
REMARK   69  A    between atoms: _166  and  _167
REMARK   70  A    between atoms: _172  and  _173
REMARK   71  A    between atoms: _175  and  _177
REMARK   72  A    between atoms: _177  and  _178
REMARK   73  A    between atoms: _180  and  _182
REMARK   74  A    between atoms: _182  and  _183
REMARK   75  A    between atoms: _182  and  _185
REMARK   76  A    between atoms: _188  and  _190
REMARK   77  A    between atoms: _190  and  _191
REMARK   78  A    between atoms: _190  and  _193
REMARK   79  A    between atoms: _193  and  _194
REMARK   80  A    between atoms: _194  and  _195
REMARK   81  A    between atoms: _200  and  _202
REMARK   82  A    between atoms: _202  and  _203
REMARK   83  A    between atoms: _202  and  _205
REMARK   84  A    between atoms: _205  and  _206
REMARK   85  A    between atoms: _211  and  _212
REMARK   86  A    between atoms: _214  and  _216
REMARK   87  A    between atoms: _216  and  _217
REMARK   88  A    between atoms: _220  and  _222
REMARK   89  A    between atoms: _222  and  _223
REMARK   90  A    between atoms: _222  and  _225
REMARK   91  A    between atoms: _225  and  _226
REMARK   92  A    between atoms: _229  and  _231
REMARK   93  A    between atoms: _231  and  _232
REMARK   94  A    between atoms: _231  and  _234
REMARK   95  A    between atoms: _237  and  _239
REMARK   96  A    between atoms: _239  and  _240
REMARK   97  A    between atoms: _239  and  _242
REMARK   98  A    between atoms: _242  and  _243
REMARK   99  A    between atoms: _253  and  _255
REMARK  100  A    between atoms: _255  and  _256
REMARK  101  A    between atoms: _258  and  _260
REMARK  102  A    between atoms: _260  and  _261
REMARK  103  A    between atoms: _260  and  _263
REMARK  104  A    between atoms: _263  and  _264
REMARK  105  A    between atoms: _269  and  _270
REMARK  106  A    between atoms: _272  and  _274
REMARK  107  A    between atoms: _274  and  _275
REMARK  108  A    between atoms: _274  and  _277
REMARK  109  A    between atoms: _277  and  _278
REMARK  110  A    between atoms: _278  and  _279
REMARK  111  A    between atoms: _279  and  _280
REMARK  112  A    between atoms: _280  and  _281
REMARK  113  A    between atoms: _285  and  _287
REMARK  114  A    between atoms: _287  and  _288
REMARK  115  A    between atoms: _287  and  _290
REMARK  116  A    between atoms: _290  and  _291
REMARK  117  A    between atoms: _294  and  _296
REMARK  118  A    between atoms: _296  and  _297
REMARK  119  A    between atoms: _296  and  _299
REMARK  120  A    between atoms: _299  and  _300
REMARK  121  A    between atoms: _303  and  _305
REMARK  122  A    between atoms: _305  and  _306
REMARK  123  A    between atoms: _305  and  _308
REMARK  124  A    between atoms: _308  and  _309
REMARK  125  A    between atoms: _309  and  _310
REMARK  126  A    between atoms: _310  and  _311
REMARK  127  A    between atoms: _311  and  _312
REMARK  128  A    between atoms: _316  and  _318
REMARK  129  A    between atoms: _318  and  _319
REMARK  130  A    between atoms: _318  and  _321
REMARK  131  A    between atoms: _321  and  _322
REMARK  132  A    between atoms: _325  and  _327
REMARK  133  A    between atoms: _327  and  _328
REMARK  134  A    between atoms: _327  and  _330
REMARK  135  A    between atoms: _330  and  _331
REMARK  136  A    between atoms: _331  and  _332
REMARK  137  A    between atoms: _337  and  _339
REMARK  138  A    between atoms: _339  and  _340
REMARK  139  A    between atoms: _339  and  _342
REMARK  140  A    between atoms: _342  and  _343
REMARK  141  A    between atoms: _346  and  _348
REMARK  142  A    between atoms: _348  and  _349
REMARK  143  A    between atoms: _348  and  _351
REMARK  144  A    between atoms: _351  and  _352
REMARK  145  A    between atoms: _357  and  _358
REMARK  146  A    between atoms: _360  and  _362
REMARK  147  A    between atoms: _362  and  _363
REMARK  148  A    between atoms: _362  and  _365
REMARK  149  A    between atoms: _365  and  _366
REMARK  150  A    between atoms: _369  and  _371
REMARK  151  A    between atoms: _371  and  _372
REMARK  152  A    between atoms: _371  and  _374
REMARK  153  A    between atoms: _376  and  _378
REMARK  154  A    between atoms: _378  and  _379
REMARK  155  A    between atoms: _382  and  _384
REMARK  156  A    between atoms: _384  and  _385
REMARK  157  A    between atoms: _384  and  _387
REMARK  158  A    between atoms: _387  and  _388
REMARK  159  A    between atoms: _388  and  _389
REMARK  160  A    between atoms: _389  and  _390
REMARK  161  A    between atoms: _390  and  _391
REMARK  162  A    between atoms: _395  and  _397
REMARK  163  A    between atoms: _397  and  _398
REMARK  164  A    between atoms: _397  and  _400
REMARK  165  A    between atoms: _400  and  _401
REMARK  166  A    between atoms: _404  and  _406
REMARK  167  A    between atoms: _406  and  _407
REMARK  168  A    between atoms: _410  and  _412
REMARK  169  A    between atoms: _412  and  _413
REMARK  170  A    between atoms: _412  and  _415
REMARK  171  A    between atoms: _415  and  _416
REMARK  172  A    between atoms: _416  and  _530
REMARK  173  A    between atoms: _417  and  _419
REMARK  174  A    between atoms: _419  and  _420
REMARK  175  A    between atoms: _419  and  _422
REMARK  176  A    between atoms: _422  and  _423
REMARK  177  A    between atoms: _423  and  _424
REMARK  178  A    between atoms: _424  and  _425
REMARK  179  A    between atoms: _425  and  _426
REMARK  180  A    between atoms: _430  and  _432
REMARK  181  A    between atoms: _432  and  _433
REMARK  182  A    between atoms: _435  and  _437
REMARK  183  A    between atoms: _437  and  _438
REMARK  184  A    between atoms: _437  and  _440
REMARK  185  A    between atoms: _440  and  _441
REMARK  186  A    between atoms: _444  and  _446
REMARK  187  A    between atoms: _446  and  _447
REMARK  188  A    between atoms: _446  and  _449
REMARK  189  A    between atoms: _449  and  _450
REMARK  190  A    between atoms: _452  and  _454
REMARK  191  A    between atoms: _454  and  _455
REMARK  192  A    between atoms: _457  and  _459
REMARK  193  A    between atoms: _459  and  _460
REMARK  194  A    between atoms: _462  and  _464
REMARK  195  A    between atoms: _464  and  _465
REMARK  196  A    between atoms: _464  and  _467
REMARK  197  A    between atoms: _467  and  _468
REMARK  198  A    between atoms: _471  and  _473
REMARK  199  A    between atoms: _473  and  _474
REMARK  200  A    between atoms: _473  and  _476
REMARK  201  A    between atoms: _476  and  _477
REMARK  202  A    between atoms: _480  and  _482
REMARK  203  A    between atoms: _482  and  _483
REMARK  204  A    between atoms: _482  and  _485
REMARK  205  A    between atoms: _485  and  _486
REMARK  206  A    between atoms: _488  and  _490
REMARK  207  A    between atoms: _490  and  _491
REMARK  208  A    between atoms: _490  and  _493
REMARK  209  A    between atoms: _493  and  _494
REMARK  210  A    between atoms: _504  and  _506
REMARK  211  A    between atoms: _506  and  _507
REMARK  212  A    between atoms: _509  and  _511
REMARK  213  A    between atoms: _511  and  _512
REMARK  214  A    between atoms: _511  and  _514
REMARK  215  A    between atoms: _514  and  _515
REMARK  216  A    between atoms: _515  and  _516
REMARK  217  A    between atoms: _519  and  _521
REMARK  218  A    between atoms: _521  and  _522
REMARK  219  A    between atoms: _524  and  _526
REMARK  220  A    between atoms: _526  and  _527
REMARK  221  A    between atoms: _526  and  _529
REMARK  222  A    between atoms: _529  and  _530
REMARK  223  A    between atoms: _531  and  _533
REMARK  224  A    between atoms: _533  and  _534
REMARK  225  A    between atoms: _537  and  _539
REMARK  226  A    between atoms: _539  and  _540
REMARK  227  A    between atoms: _539  and  _542
REMARK  228  A    between atoms: _542  and  _543
REMARK  229  A    between atoms: _543  and  _544
REMARK  230  A    between atoms: _549  and  _551
REMARK  231  A    between atoms: _551  and  _552
REMARK  232  A    between atoms: _551  and  _554
REMARK  233  A    between atoms: _554  and  _555
REMARK  234  A    between atoms: _555  and  _556
REMARK  235  A    between atoms: _556  and  _557
REMARK  236  A    between atoms: _567  and  _568
REMARK  237  A    between atoms: _573  and  _575
REMARK  238  A    between atoms: _575  and  _576
REMARK  239  A    between atoms: _578  and  _580
REMARK  240  A    between atoms: _580  and  _581
REMARK  241  A    between atoms: _580  and  _583
REMARK  242  A    between atoms: _586  and  _588
REMARK  243  A    between atoms: _588  and  _589
REMARK  244  A    between atoms: _588  and  _591
REMARK  245  A    between atoms: _591  and  _592
REMARK  246  A    between atoms: _597  and  _598
REMARK  247  A    between atoms: _600  and  _602
REMARK  248  A    between atoms: _602  and  _603
REMARK  249  A    between atoms: _602  and  _605
REMARK  250  A    between atoms: _605  and  _606
REMARK                            x       y       z     vdW  Elec       q    Type
REMARK                         _______ _______ _______ _____ _____    ______ ____
ROOT
ATOM      1  O   HOH     1      24.398  15.669 -36.592  0.00  0.00    +0.000 OA
ENDROOT
TORSDOF 0
REMARK  Name = ../refined-set-2016/4x6p/4x6p_pocket.pdb
REMARK  250 active torsions:
REMARK  status: ('A' for Active; 'I' for Inactive)
REMARK    1  A    between atoms: _1  and  _5
REMARK    2  A    between atoms: _5  and  _6
REMARK    3  A    between atoms: _5  and  _8
REMARK    4  A    between atoms: _8  and  _9
REMARK    5  A    between atoms: _12  and  _14
REMARK    6  A    between atoms: _14  and  _15
REMARK    7  A    between atoms: _14  and  _17
REMARK    8  A    between atoms: _20  and  _22
REMARK    9  A    between atoms: _22  and  _23
REMARK   10  A    between atoms: _22  and  _25
REMARK   11  A    between atoms: _25  and  _26
REMARK   12  A    between atoms: _29  and  _31
REMARK   13  A    between atoms: _31  and  _32
REMARK   14  A    between atoms: _31  and  _34
REMARK   15  A    between atoms: _34  and  _35
REMARK   16  A    between atoms: _38  and  _40
REMARK   17  A    between atoms: _40  and  _41
REMARK   18  A    between atoms: _40  and  _43
REMARK   19  A    between atoms: _43  and  _44
REMARK   20  A    between atoms: _49  and  _51
REMARK   21  A    between atoms: _51  and  _52
REMARK   22  A    between atoms: _51  and  _54
REMARK   23  A    between atoms: _54  and  _55
REMARK   24  A    between atoms: _58  and  _60
REMARK   25  A    between atoms: _60  and  _61
REMARK   26  A    between atoms: _60  and  _63
REMARK   27  A    between atoms: _63  and  _64
REMARK   28  A    between atoms: _64  and  _65
REMARK   29  A    between atoms: _70  and  _72
REMARK   30  A    between atoms: _72  and  _73
REMARK   31  A    between atoms: _72  and  _75
REMARK   32  A    between atoms: _75  and  _76
REMARK   33  A    between atoms: _76  and  _77
REMARK   34  A    between atoms: _77  and  _78
REMARK   35  A    between atoms: _87  and  _89
REMARK   36  A    between atoms: _89  and  _90
REMARK   37  A    between atoms: _89  and  _92
REMARK   38  A    between atoms: _92  and  _93
REMARK   39  A    between atoms: _98  and  _100
REMARK   40  A    between atoms: _100  and  _101
REMARK   41  A    between atoms: _100  and  _103
REMARK   42  A    between atoms: _103  and  _104
REMARK   43  A    between atoms: _107  and  _109
REMARK   44  A    between atoms: _109  and  _110
REMARK   45  A    between atoms: _109  and  _112
REMARK   46  A    between atoms: _112  and  _113
REMARK   47  A    between atoms: _113  and  _148
REMARK   48  A    between atoms: _114  and  _116
REMARK   49  A    between atoms: _116  and  _117
REMARK   50  A    between atoms: _119  and  _121
REMARK   51  A    between atoms: _121  and  _122
REMARK   52  A    between atoms: _125  and  _127
REMARK   53  A    between atoms: _127  and  _128
REMARK   54  A    between atoms: _131  and  _133
REMARK   55  A    between atoms: _133  and  _134
REMARK   56  A    between atoms: _133  and  _136
REMARK   57  A    between atoms: _136  and  _137
REMARK   58  A    between atoms: _142  and  _144
REMARK   59  A    between atoms: _144  and  _145
REMARK   60  A    between atoms: _144  and  _147
REMARK   61  A    between atoms: _147  and  _148
REMARK   62  A    between atoms: _149  and  _151
REMARK   63  A    between atoms: _151  and  _152
REMARK   64  A    between atoms: _151  and  _154
REMARK   65  A    between atoms: _154  and  _155
REMARK   66  A    between atoms: _161  and  _163
REMARK   67  A    between atoms: _163  and  _164
REMARK   68  A    between atoms: _163  and  _166
REMARK   69  A    between atoms: _166  and  _167
REMARK   70  A    between atoms: _172  and  _173
REMARK   71  A    between atoms: _175  and  _177
REMARK   72  A    between atoms: _177  and  _178
REMARK   73  A    between atoms: _180  and  _182
REMARK   74  A    between atoms: _182  and  _183
REMARK   75  A    between atoms: _182  and  _185
REMARK   76  A    between atoms: _188  and  _190
REMARK   77  A    between atoms: _190  and  _191
REMARK   78  A    between atoms: _190  and  _193
REMARK   79  A    between atoms: _193  and  _194
REMARK   80  A    between atoms: _194  and  _195
REMARK   81  A    between atoms: _200  and  _202
REMARK   82  A    between atoms: _202  and  _203
REMARK   83  A    between atoms: _202  and  _205
REMARK   84  A    between atoms: _205  and  _206
REMARK   85  A    between atoms: _211  and  _212
REMARK   86  A    between atoms: _214  and  _216
REMARK   87  A    between atoms: _216  and  _217
REMARK   88  A    between atoms: _220  and  _222
REMARK   89  A    between atoms: _222  and  _223
REMARK   90  A    between atoms: _222  and  _225
REMARK   91  A    between atoms: _225  and  _226
REMARK   92  A    between atoms: _229  and  _231
REMARK   93  A    between atoms: _231  and  _232
REMARK   94  A    between atoms: _231  and  _234
REMARK   95  A    between atoms: _237  and  _239
REMARK   96  A    between atoms: _239  and  _240
REMARK   97  A    between atoms: _239  and  _242
REMARK   98  A    between atoms: _242  and  _243
REMARK   99  A    between atoms: _253  and  _255
REMARK  100  A    between atoms: _255  and  _256
REMARK  101  A    between atoms: _258  and  _260
REMARK  102  A    between atoms: _260  and  _261
REMARK  103  A    between atoms: _260  and  _263
REMARK  104  A    between atoms: _263  and  _264
REMARK  105  A    between atoms: _269  and  _270
REMARK  106  A    between atoms: _272  and  _274
REMARK  107  A    between atoms: _274  and  _275
REMARK  108  A    between atoms: _274  and  _277
REMARK  109  A    between atoms: _277  and  _278
REMARK  110  A    between atoms: _278  and  _279
REMARK  111  A    between atoms: _279  and  _280
REMARK  112  A    between atoms: _280  and  _281
REMARK  113  A    between atoms: _285  and  _287
REMARK  114  A    between atoms: _287  and  _288
REMARK  115  A    between atoms: _287  and  _290
REMARK  116  A    between atoms: _290  and  _291
REMARK  117  A    between atoms: _294  and  _296
REMARK  118  A    between atoms: _296  and  _297
REMARK  119  A    between atoms: _296  and  _299
REMARK  120  A    between atoms: _299  and  _300
REMARK  121  A    between atoms: _303  and  _305
REMARK  122  A    between atoms: _305  and  _306
REMARK  123  A    between atoms: _305  and  _308
REMARK  124  A    between atoms: _308  and  _309
REMARK  125  A    between atoms: _309  and  _310
REMARK  126  A    between atoms: _310  and  _311
REMARK  127  A    between atoms: _311  and  _312
REMARK  128  A    between atoms: _316  and  _318
REMARK  129  A    between atoms: _318  and  _319
REMARK  130  A    between atoms: _318  and  _321
REMARK  131  A    between atoms: _321  and  _322
REMARK  132  A    between atoms: _325  and  _327
REMARK  133  A    between atoms: _327  and  _328
REMARK  134  A    between atoms: _327  and  _330
REMARK  135  A    between atoms: _330  and  _331
REMARK  136  A    between atoms: _331  and  _332
REMARK  137  A    between atoms: _337  and  _339
REMARK  138  A    between atoms: _339  and  _340
REMARK  139  A    between atoms: _339  and  _342
REMARK  140  A    between atoms: _342  and  _343
REMARK  141  A    between atoms: _346  and  _348
REMARK  142  A    between atoms: _348  and  _349
REMARK  143  A    between atoms: _348  and  _351
REMARK  144  A    between atoms: _351  and  _352
REMARK  145  A    between atoms: _357  and  _358
REMARK  146  A    between atoms: _360  and  _362
REMARK  147  A    between atoms: _362  and  _363
REMARK  148  A    between atoms: _362  and  _365
REMARK  149  A    between atoms: _365  and  _366
REMARK  150  A    between atoms: _369  and  _371
REMARK  151  A    between atoms: _371  and  _372
REMARK  152  A    between atoms: _371  and  _374
REMARK  153  A    between atoms: _376  and  _378
REMARK  154  A    between atoms: _378  and  _379
REMARK  155  A    between atoms: _382  and  _384
REMARK  156  A    between atoms: _384  and  _385
REMARK  157  A    between atoms: _384  and  _387
REMARK  158  A    between atoms: _387  and  _388
REMARK  159  A    between atoms: _388  and  _389
REMARK  160  A    between atoms: _389  and  _390
REMARK  161  A    between atoms: _390  and  _391
REMARK  162  A    between atoms: _395  and  _397
REMARK  163  A    between atoms: _397  and  _398
REMARK  164  A    between atoms: _397  and  _400
REMARK  165  A    between atoms: _400  and  _401
REMARK  166  A    between atoms: _404  and  _406
REMARK  167  A    between atoms: _406  and  _407
REMARK  168  A    between atoms: _410  and  _412
REMARK  169  A    between atoms: _412  and  _413
REMARK  170  A    between atoms: _412  and  _415
REMARK  171  A    between atoms: _415  and  _416
REMARK  172  A    between atoms: _416  and  _530
REMARK  173  A    between atoms: _417  and  _419
REMARK  174  A    between atoms: _419  and  _420
REMARK  175  A    between atoms: _419  and  _422
REMARK  176  A    between atoms: _422  and  _423
REMARK  177  A    between atoms: _423  and  _424
REMARK  178  A    between atoms: _424  and  _425
REMARK  179  A    between atoms: _425  and  _426
REMARK  180  A    between atoms: _430  and  _432
REMARK  181  A    between atoms: _432  and  _433
REMARK  182  A    between atoms: _435  and  _437
REMARK  183  A    between atoms: _437  and  _438
REMARK  184  A    between atoms: _437  and  _440
REMARK  185  A    between atoms: _440  and  _441
REMARK  186  A    between atoms: _444  and  _446
REMARK  187  A    between atoms: _446  and  _447
REMARK  188  A    between atoms: _446  and  _449
REMARK  189  A    between atoms: _449  and  _450
REMARK  190  A    between atoms: _452  and  _454
REMARK  191  A    between atoms: _454  and  _455
REMARK  192  A    between atoms: _457  and  _459
REMARK  193  A    between atoms: _459  and  _460
REMARK  194  A    between atoms: _462  and  _464
REMARK  195  A    between atoms: _464  and  _465
REMARK  196  A    between atoms: _464  and  _467
REMARK  197  A    between atoms: _467  and  _468
REMARK  198  A    between atoms: _471  and  _473
REMARK  199  A    between atoms: _473  and  _474
REMARK  200  A    between atoms: _473  and  _476
REMARK  201  A    between atoms: _476  and  _477
REMARK  202  A    between atoms: _480  and  _482
REMARK  203  A    between atoms: _482  and  _483
REMARK  204  A    between atoms: _482  and  _485
REMARK  205  A    between atoms: _485  and  _486
REMARK  206  A    between atoms: _488  and  _490
REMARK  207  A    between atoms: _490  and  _491
REMARK  208  A    between atoms: _490  and  _493
REMARK  209  A    between atoms: _493  and  _494
REMARK  210  A    between atoms: _504  and  _506
REMARK  211  A    between atoms: _506  and  _507
REMARK  212  A    between atoms: _509  and  _511
REMARK  213  A    between atoms: _511  and  _512
REMARK  214  A    between atoms: _511  and  _514
REMARK  215  A    between atoms: _514  and  _515
REMARK  216  A    between atoms: _515  and  _516
REMARK  217  A    between atoms: _519  and  _521
REMARK  218  A    between atoms: _521  and  _522
REMARK  219  A    between atoms: _524  and  _526
REMARK  220  A    between atoms: _526  and  _527
REMARK  221  A    between atoms: _526  and  _529
REMARK  222  A    between atoms: _529  and  _530
REMARK  223  A    between atoms: _531  and  _533
REMARK  224  A    between atoms: _533  and  _534
REMARK  225  A    between atoms: _537  and  _539
REMARK  226  A    between atoms: _539  and  _540
REMARK  227  A    between atoms: _539  and  _542
REMARK  228  A    between atoms: _542  and  _543
REMARK  229  A    between atoms: _543  and  _544
REMARK  230  A    between atoms: _549  and  _551
REMARK  231  A    between atoms: _551  and  _552
REMARK  232  A    between atoms: _551  and  _554
REMARK  233  A    between atoms: _554  and  _555
REMARK  234  A    between atoms: _555  and  _556
REMARK  235  A    between atoms: _556  and  _557
REMARK  236  A    between atoms: _567  and  _568
REMARK  237  A    between atoms: _573  and  _575
REMARK  238  A    between atoms: _575  and  _576
REMARK  239  A    between atoms: _578  and  _580
REMARK  240  A    between atoms: _580  and  _581
REMARK  241  A    between atoms: _580  and  _583
REMARK  242  A    between atoms: _586  and  _588
REMARK  243  A    between atoms: _588  and  _589
REMARK  244  A    between atoms: _588  and  _591
REMARK  245  A    between atoms: _591  and  _592
REMARK  246  A    between atoms: _597  and  _598
REMARK  247  A    between atoms: _600  and  _602
REMARK  248  A    between atoms: _602  and  _603
REMARK  249  A    between atoms: _602  and  _605
REMARK  250  A    between atoms: _605  and  _606
REMARK                            x       y       z     vdW  Elec       q    Type
REMARK                         _______ _______ _______ _____ _____    ______ ____
ROOT
ATOM      1  O   HOH     1      19.709  21.266 -47.593  0.00  0.00    +0.000 OA
ENDROOT
TORSDOF 0
REMARK  Name = ../refined-set-2016/4x6p/4x6p_pocket.pdb
REMARK  250 active torsions:
REMARK  status: ('A' for Active; 'I' for Inactive)
REMARK    1  A    between atoms: _1  and  _5
REMARK    2  A    between atoms: _5  and  _6
REMARK    3  A    between atoms: _5  and  _8
REMARK    4  A    between atoms: _8  and  _9
REMARK    5  A    between atoms: _12  and  _14
REMARK    6  A    between atoms: _14  and  _15
REMARK    7  A    between atoms: _14  and  _17
REMARK    8  A    between atoms: _20  and  _22
REMARK    9  A    between atoms: _22  and  _23
REMARK   10  A    between atoms: _22  and  _25
REMARK   11  A    between atoms: _25  and  _26
REMARK   12  A    between atoms: _29  and  _31
REMARK   13  A    between atoms: _31  and  _32
REMARK   14  A    between atoms: _31  and  _34
REMARK   15  A    between atoms: _34  and  _35
REMARK   16  A    between atoms: _38  and  _40
REMARK   17  A    between atoms: _40  and  _41
REMARK   18  A    between atoms: _40  and  _43
REMARK   19  A    between atoms: _43  and  _44
REMARK   20  A    between atoms: _49  and  _51
REMARK   21  A    between atoms: _51  and  _52
REMARK   22  A    between atoms: _51  and  _54
REMARK   23  A    between atoms: _54  and  _55
REMARK   24  A    between atoms: _58  and  _60
REMARK   25  A    between atoms: _60  and  _61
REMARK   26  A    between atoms: _60  and  _63
REMARK   27  A    between atoms: _63  and  _64
REMARK   28  A    between atoms: _64  and  _65
REMARK   29  A    between atoms: _70  and  _72
REMARK   30  A    between atoms: _72  and  _73
REMARK   31  A    between atoms: _72  and  _75
REMARK   32  A    between atoms: _75  and  _76
REMARK   33  A    between atoms: _76  and  _77
REMARK   34  A    between atoms: _77  and  _78
REMARK   35  A    between atoms: _87  and  _89
REMARK   36  A    between atoms: _89  and  _90
REMARK   37  A    between atoms: _89  and  _92
REMARK   38  A    between atoms: _92  and  _93
REMARK   39  A    between atoms: _98  and  _100
REMARK   40  A    between atoms: _100  and  _101
REMARK   41  A    between atoms: _100  and  _103
REMARK   42  A    between atoms: _103  and  _104
REMARK   43  A    between atoms: _107  and  _109
REMARK   44  A    between atoms: _109  and  _110
REMARK   45  A    between atoms: _109  and  _112
REMARK   46  A    between atoms: _112  and  _113
REMARK   47  A    between atoms: _113  and  _148
REMARK   48  A    between atoms: _114  and  _116
REMARK   49  A    between atoms: _116  and  _117
REMARK   50  A    between atoms: _119  and  _121
REMARK   51  A    between atoms: _121  and  _122
REMARK   52  A    between atoms: _125  and  _127
REMARK   53  A    between atoms: _127  and  _128
REMARK   54  A    between atoms: _131  and  _133
REMARK   55  A    between atoms: _133  and  _134
REMARK   56  A    between atoms: _133  and  _136
REMARK   57  A    between atoms: _136  and  _137
REMARK   58  A    between atoms: _142  and  _144
REMARK   59  A    between atoms: _144  and  _145
REMARK   60  A    between atoms: _144  and  _147
REMARK   61  A    between atoms: _147  and  _148
REMARK   62  A    between atoms: _149  and  _151
REMARK   63  A    between atoms: _151  and  _152
REMARK   64  A    between atoms: _151  and  _154
REMARK   65  A    between atoms: _154  and  _155
REMARK   66  A    between atoms: _161  and  _163
REMARK   67  A    between atoms: _163  and  _164
REMARK   68  A    between atoms: _163  and  _166
REMARK   69  A    between atoms: _166  and  _167
REMARK   70  A    between atoms: _172  and  _173
REMARK   71  A    between atoms: _175  and  _177
REMARK   72  A    between atoms: _177  and  _178
REMARK   73  A    between atoms: _180  and  _182
REMARK   74  A    between atoms: _182  and  _183
REMARK   75  A    between atoms: _182  and  _185
REMARK   76  A    between atoms: _188  and  _190
REMARK   77  A    between atoms: _190  and  _191
REMARK   78  A    between atoms: _190  and  _193
REMARK   79  A    between atoms: _193  and  _194
REMARK   80  A    between atoms: _194  and  _195
REMARK   81  A    between atoms: _200  and  _202
REMARK   82  A    between atoms: _202  and  _203
REMARK   83  A    between atoms: _202  and  _205
REMARK   84  A    between atoms: _205  and  _206
REMARK   85  A    between atoms: _211  and  _212
REMARK   86  A    between atoms: _214  and  _216
REMARK   87  A    between atoms: _216  and  _217
REMARK   88  A    between atoms: _220  and  _222
REMARK   89  A    between atoms: _222  and  _223
REMARK   90  A    between atoms: _222  and  _225
REMARK   91  A    between atoms: _225  and  _226
REMARK   92  A    between atoms: _229  and  _231
REMARK   93  A    between atoms: _231  and  _232
REMARK   94  A    between atoms: _231  and  _234
REMARK   95  A    between atoms: _237  and  _239
REMARK   96  A    between atoms: _239  and  _240
REMARK   97  A    between atoms: _239  and  _242
REMARK   98  A    between atoms: _242  and  _243
REMARK   99  A    between atoms: _253  and  _255
REMARK  100  A    between atoms: _255  and  _256
REMARK  101  A    between atoms: _258  and  _260
REMARK  102  A    between atoms: _260  and  _261
REMARK  103  A    between atoms: _260  and  _263
REMARK  104  A    between atoms: _263  and  _264
REMARK  105  A    between atoms: _269  and  _270
REMARK  106  A    between atoms: _272  and  _274
REMARK  107  A    between atoms: _274  and  _275
REMARK  108  A    between atoms: _274  and  _277
REMARK  109  A    between atoms: _277  and  _278
REMARK  110  A    between atoms: _278  and  _279
REMARK  111  A    between atoms: _279  and  _280
REMARK  112  A    between atoms: _280  and  _281
REMARK  113  A    between atoms: _285  and  _287
REMARK  114  A    between atoms: _287  and  _288
REMARK  115  A    between atoms: _287  and  _290
REMARK  116  A    between atoms: _290  and  _291
REMARK  117  A    between atoms: _294  and  _296
REMARK  118  A    between atoms: _296  and  _297
REMARK  119  A    between atoms: _296  and  _299
REMARK  120  A    between atoms: _299  and  _300
REMARK  121  A    between atoms: _303  and  _305
REMARK  122  A    between atoms: _305  and  _306
REMARK  123  A    between atoms: _305  and  _308
REMARK  124  A    between atoms: _308  and  _309
REMARK  125  A    between atoms: _309  and  _310
REMARK  126  A    between atoms: _310  and  _311
REMARK  127  A    between atoms: _311  and  _312
REMARK  128  A    between atoms: _316  and  _318
REMARK  129  A    between atoms: _318  and  _319
REMARK  130  A    between atoms: _318  and  _321
REMARK  131  A    between atoms: _321  and  _322
REMARK  132  A    between atoms: _325  and  _327
REMARK  133  A    between atoms: _327  and  _328
REMARK  134  A    between atoms: _327  and  _330
REMARK  135  A    between atoms: _330  and  _331
REMARK  136  A    between atoms: _331  and  _332
REMARK  137  A    between atoms: _337  and  _339
REMARK  138  A    between atoms: _339  and  _340
REMARK  139  A    between atoms: _339  and  _342
REMARK  140  A    between atoms: _342  and  _343
REMARK  141  A    between atoms: _346  and  _348
REMARK  142  A    between atoms: _348  and  _349
REMARK  143  A    between atoms: _348  and  _351
REMARK  144  A    between atoms: _351  and  _352
REMARK  145  A    between atoms: _357  and  _358
REMARK  146  A    between atoms: _360  and  _362
REMARK  147  A    between atoms: _362  and  _363
REMARK  148  A    between atoms: _362  and  _365
REMARK  149  A    between atoms: _365  and  _366
REMARK  150  A    between atoms: _369  and  _371
REMARK  151  A    between atoms: _371  and  _372
REMARK  152  A    between atoms: _371  and  _374
REMARK  153  A    between atoms: _376  and  _378
REMARK  154  A    between atoms: _378  and  _379
REMARK  155  A    between atoms: _382  and  _384
REMARK  156  A    between atoms: _384  and  _385
REMARK  157  A    between atoms: _384  and  _387
REMARK  158  A    between atoms: _387  and  _388
REMARK  159  A    between atoms: _388  and  _389
REMARK  160  A    between atoms: _389  and  _390
REMARK  161  A    between atoms: _390  and  _391
REMARK  162  A    between atoms: _395  and  _397
REMARK  163  A    between atoms: _397  and  _398
REMARK  164  A    between atoms: _397  and  _400
REMARK  165  A    between atoms: _400  and  _401
REMARK  166  A    between atoms: _404  and  _406
REMARK  167  A    between atoms: _406  and  _407
REMARK  168  A    between atoms: _410  and  _412
REMARK  169  A    between atoms: _412  and  _413
REMARK  170  A    between atoms: _412  and  _415
REMARK  171  A    between atoms: _415  and  _416
REMARK  172  A    between atoms: _416  and  _530
REMARK  173  A    between atoms: _417  and  _419
REMARK  174  A    between atoms: _419  and  _420
REMARK  175  A    between atoms: _419  and  _422
REMARK  176  A    between atoms: _422  and  _423
REMARK  177  A    between atoms: _423  and  _424
REMARK  178  A    between atoms: _424  and  _425
REMARK  179  A    between atoms: _425  and  _426
REMARK  180  A    between atoms: _430  and  _432
REMARK  181  A    between atoms: _432  and  _433
REMARK  182  A    between atoms: _435  and  _437
REMARK  183  A    between atoms: _437  and  _438
REMARK  184  A    between atoms: _437  and  _440
REMARK  185  A    between atoms: _440  and  _441
REMARK  186  A    between atoms: _444  and  _446
REMARK  187  A    between atoms: _446  and  _447
REMARK  188  A    between atoms: _446  and  _449
REMARK  189  A    between atoms: _449  and  _450
REMARK  190  A    between atoms: _452  and  _454
REMARK  191  A    between atoms: _454  and  _455
REMARK  192  A    between atoms: _457  and  _459
REMARK  193  A    between atoms: _459  and  _460
REMARK  194  A    between atoms: _462  and  _464
REMARK  195  A    between atoms: _464  and  _465
REMARK  196  A    between atoms: _464  and  _467
REMARK  197  A    between atoms: _467  and  _468
REMARK  198  A    between atoms: _471  and  _473
REMARK  199  A    between atoms: _473  and  _474
REMARK  200  A    between atoms: _473  and  _476
REMARK  201  A    between atoms: _476  and  _477
REMARK  202  A    between atoms: _480  and  _482
REMARK  203  A    between atoms: _482  and  _483
REMARK  204  A    between atoms: _482  and  _485
REMARK  205  A    between atoms: _485  and  _486
REMARK  206  A    between atoms: _488  and  _490
REMARK  207  A    between atoms: _490  and  _491
REMARK  208  A    between atoms: _490  and  _493
REMARK  209  A    between atoms: _493  and  _494
REMARK  210  A    between atoms: _504  and  _506
REMARK  211  A    between atoms: _506  and  _507
REMARK  212  A    between atoms: _509  and  _511
REMARK  213  A    between atoms: _511  and  _512
REMARK  214  A    between atoms: _511  and  _514
REMARK  215  A    between atoms: _514  and  _515
REMARK  216  A    between atoms: _515  and  _516
REMARK  217  A    between atoms: _519  and  _521
REMARK  218  A    between atoms: _521  and  _522
REMARK  219  A    between atoms: _524  and  _526
REMARK  220  A    between atoms: _526  and  _527
REMARK  221  A    between atoms: _526  and  _529
REMARK  222  A    between atoms: _529  and  _530
REMARK  223  A    between atoms: _531  and  _533
REMARK  224  A    between atoms: _533  and  _534
REMARK  225  A    between atoms: _537  and  _539
REMARK  226  A    between atoms: _539  and  _540
REMARK  227  A    between atoms: _539  and  _542
REMARK  228  A    between atoms: _542  and  _543
REMARK  229  A    between atoms: _543  and  _544
REMARK  230  A    between atoms: _549  and  _551
REMARK  231  A    between atoms: _551  and  _552
REMARK  232  A    between atoms: _551  and  _554
REMARK  233  A    between atoms: _554  and  _555
REMARK  234  A    between atoms: _555  and  _556
REMARK  235  A    between atoms: _556  and  _557
REMARK  236  A    between atoms: _567  and  _568
REMARK  237  A    between atoms: _573  and  _575
REMARK  238  A    between atoms: _575  and  _576
REMARK  239  A    between atoms: _578  and  _580
REMARK  240  A    between atoms: _580  and  _581
REMARK  241  A    between atoms: _580  and  _583
REMARK  242  A    between atoms: _586  and  _588
REMARK  243  A    between atoms: _588  and  _589
REMARK  244  A    between atoms: _588  and  _591
REMARK  245  A    between atoms: _591  and  _592
REMARK  246  A    between atoms: _597  and  _598
REMARK  247  A    between atoms: _600  and  _602
REMARK  248  A    between atoms: _602  and  _603
REMARK  249  A    between atoms: _602  and  _605
REMARK  250  A    between atoms: _605  and  _606
REMARK                            x       y       z     vdW  Elec       q    Type
REMARK                         _______ _______ _______ _____ _____    ______ ____
ROOT
ATOM      1  O   HOH     1      14.595  19.291 -43.390  0.00  0.00    +0.000 OA
ENDROOT
TORSDOF 0
REMARK  Name = ../refined-set-2016/4x6p/4x6p_pocket.pdb
REMARK  250 active torsions:
REMARK  status: ('A' for Active; 'I' for Inactive)
REMARK    1  A    between atoms: _1  and  _5
REMARK    2  A    between atoms: _5  and  _6
REMARK    3  A    between atoms: _5  and  _8
REMARK    4  A    between atoms: _8  and  _9
REMARK    5  A    between atoms: _12  and  _14
REMARK    6  A    between atoms: _14  and  _15
REMARK    7  A    between atoms: _14  and  _17
REMARK    8  A    between atoms: _20  and  _22
REMARK    9  A    between atoms: _22  and  _23
REMARK   10  A    between atoms: _22  and  _25
REMARK   11  A    between atoms: _25  and  _26
REMARK   12  A    between atoms: _29  and  _31
REMARK   13  A    between atoms: _31  and  _32
REMARK   14  A    between atoms: _31  and  _34
REMARK   15  A    between atoms: _34  and  _35
REMARK   16  A    between atoms: _38  and  _40
REMARK   17  A    between atoms: _40  and  _41
REMARK   18  A    between atoms: _40  and  _43
REMARK   19  A    between atoms: _43  and  _44
REMARK   20  A    between atoms: _49  and  _51
REMARK   21  A    between atoms: _51  and  _52
REMARK   22  A    between atoms: _51  and  _54
REMARK   23  A    between atoms: _54  and  _55
REMARK   24  A    between atoms: _58  and  _60
REMARK   25  A    between atoms: _60  and  _61
REMARK   26  A    between atoms: _60  and  _63
REMARK   27  A    between atoms: _63  and  _64
REMARK   28  A    between atoms: _64  and  _65
REMARK   29  A    between atoms: _70  and  _72
REMARK   30  A    between atoms: _72  and  _73
REMARK   31  A    between atoms: _72  and  _75
REMARK   32  A    between atoms: _75  and  _76
REMARK   33  A    between atoms: _76  and  _77
REMARK   34  A    between atoms: _77  and  _78
REMARK   35  A    between atoms: _87  and  _89
REMARK   36  A    between atoms: _89  and  _90
REMARK   37  A    between atoms: _89  and  _92
REMARK   38  A    between atoms: _92  and  _93
REMARK   39  A    between atoms: _98  and  _100
REMARK   40  A    between atoms: _100  and  _101
REMARK   41  A    between atoms: _100  and  _103
REMARK   42  A    between atoms: _103  and  _104
REMARK   43  A    between atoms: _107  and  _109
REMARK   44  A    between atoms: _109  and  _110
REMARK   45  A    between atoms: _109  and  _112
REMARK   46  A    between atoms: _112  and  _113
REMARK   47  A    between atoms: _113  and  _148
REMARK   48  A    between atoms: _114  and  _116
REMARK   49  A    between atoms: _116  and  _117
REMARK   50  A    between atoms: _119  and  _121
REMARK   51  A    between atoms: _121  and  _122
REMARK   52  A    between atoms: _125  and  _127
REMARK   53  A    between atoms: _127  and  _128
REMARK   54  A    between atoms: _131  and  _133
REMARK   55  A    between atoms: _133  and  _134
REMARK   56  A    between atoms: _133  and  _136
REMARK   57  A    between atoms: _136  and  _137
REMARK   58  A    between atoms: _142  and  _144
REMARK   59  A    between atoms: _144  and  _145
REMARK   60  A    between atoms: _144  and  _147
REMARK   61  A    between atoms: _147  and  _148
REMARK   62  A    between atoms: _149  and  _151
REMARK   63  A    between atoms: _151  and  _152
REMARK   64  A    between atoms: _151  and  _154
REMARK   65  A    between atoms: _154  and  _155
REMARK   66  A    between atoms: _161  and  _163
REMARK   67  A    between atoms: _163  and  _164
REMARK   68  A    between atoms: _163  and  _166
REMARK   69  A    between atoms: _166  and  _167
REMARK   70  A    between atoms: _172  and  _173
REMARK   71  A    between atoms: _175  and  _177
REMARK   72  A    between atoms: _177  and  _178
REMARK   73  A    between atoms: _180  and  _182
REMARK   74  A    between atoms: _182  and  _183
REMARK   75  A    between atoms: _182  and  _185
REMARK   76  A    between atoms: _188  and  _190
REMARK   77  A    between atoms: _190  and  _191
REMARK   78  A    between atoms: _190  and  _193
REMARK   79  A    between atoms: _193  and  _194
REMARK   80  A    between atoms: _194  and  _195
REMARK   81  A    between atoms: _200  and  _202
REMARK   82  A    between atoms: _202  and  _203
REMARK   83  A    between atoms: _202  and  _205
REMARK   84  A    between atoms: _205  and  _206
REMARK   85  A    between atoms: _211  and  _212
REMARK   86  A    between atoms: _214  and  _216
REMARK   87  A    between atoms: _216  and  _217
REMARK   88  A    between atoms: _220  and  _222
REMARK   89  A    between atoms: _222  and  _223
REMARK   90  A    between atoms: _222  and  _225
REMARK   91  A    between atoms: _225  and  _226
REMARK   92  A    between atoms: _229  and  _231
REMARK   93  A    between atoms: _231  and  _232
REMARK   94  A    between atoms: _231  and  _234
REMARK   95  A    between atoms: _237  and  _239
REMARK   96  A    between atoms: _239  and  _240
REMARK   97  A    between atoms: _239  and  _242
REMARK   98  A    between atoms: _242  and  _243
REMARK   99  A    between atoms: _253  and  _255
REMARK  100  A    between atoms: _255  and  _256
REMARK  101  A    between atoms: _258  and  _260
REMARK  102  A    between atoms: _260  and  _261
REMARK  103  A    between atoms: _260  and  _263
REMARK  104  A    between atoms: _263  and  _264
REMARK  105  A    between atoms: _269  and  _270
REMARK  106  A    between atoms: _272  and  _274
REMARK  107  A    between atoms: _274  and  _275
REMARK  108  A    between atoms: _274  and  _277
REMARK  109  A    between atoms: _277  and  _278
REMARK  110  A    between atoms: _278  and  _279
REMARK  111  A    between atoms: _279  and  _280
REMARK  112  A    between atoms: _280  and  _281
REMARK  113  A    between atoms: _285  and  _287
REMARK  114  A    between atoms: _287  and  _288
REMARK  115  A    between atoms: _287  and  _290
REMARK  116  A    between atoms: _290  and  _291
REMARK  117  A    between atoms: _294  and  _296
REMARK  118  A    between atoms: _296  and  _297
REMARK  119  A    between atoms: _296  and  _299
REMARK  120  A    between atoms: _299  and  _300
REMARK  121  A    between atoms: _303  and  _305
REMARK  122  A    between atoms: _305  and  _306
REMARK  123  A    between atoms: _305  and  _308
REMARK  124  A    between atoms: _308  and  _309
REMARK  125  A    between atoms: _309  and  _310
REMARK  126  A    between atoms: _310  and  _311
REMARK  127  A    between atoms: _311  and  _312
REMARK  128  A    between atoms: _316  and  _318
REMARK  129  A    between atoms: _318  and  _319
REMARK  130  A    between atoms: _318  and  _321
REMARK  131  A    between atoms: _321  and  _322
REMARK  132  A    between atoms: _325  and  _327
REMARK  133  A    between atoms: _327  and  _328
REMARK  134  A    between atoms: _327  and  _330
REMARK  135  A    between atoms: _330  and  _331
REMARK  136  A    between atoms: _331  and  _332
REMARK  137  A    between atoms: _337  and  _339
REMARK  138  A    between atoms: _339  and  _340
REMARK  139  A    between atoms: _339  and  _342
REMARK  140  A    between atoms: _342  and  _343
REMARK  141  A    between atoms: _346  and  _348
REMARK  142  A    between atoms: _348  and  _349
REMARK  143  A    between atoms: _348  and  _351
REMARK  144  A    between atoms: _351  and  _352
REMARK  145  A    between atoms: _357  and  _358
REMARK  146  A    between atoms: _360  and  _362
REMARK  147  A    between atoms: _362  and  _363
REMARK  148  A    between atoms: _362  and  _365
REMARK  149  A    between atoms: _365  and  _366
REMARK  150  A    between atoms: _369  and  _371
REMARK  151  A    between atoms: _371  and  _372
REMARK  152  A    between atoms: _371  and  _374
REMARK  153  A    between atoms: _376  and  _378
REMARK  154  A    between atoms: _378  and  _379
REMARK  155  A    between atoms: _382  and  _384
REMARK  156  A    between atoms: _384  and  _385
REMARK  157  A    between atoms: _384  and  _387
REMARK  158  A    between atoms: _387  and  _388
REMARK  159  A    between atoms: _388  and  _389
REMARK  160  A    between atoms: _389  and  _390
REMARK  161  A    between atoms: _390  and  _391
REMARK  162  A    between atoms: _395  and  _397
REMARK  163  A    between atoms: _397  and  _398
REMARK  164  A    between atoms: _397  and  _400
REMARK  165  A    between atoms: _400  and  _401
REMARK  166  A    between atoms: _404  and  _406
REMARK  167  A    between atoms: _406  and  _407
REMARK  168  A    between atoms: _410  and  _412
REMARK  169  A    between atoms: _412  and  _413
REMARK  170  A    between atoms: _412  and  _415
REMARK  171  A    between atoms: _415  and  _416
REMARK  172  A    between atoms: _416  and  _530
REMARK  173  A    between atoms: _417  and  _419
REMARK  174  A    between atoms: _419  and  _420
REMARK  175  A    between atoms: _419  and  _422
REMARK  176  A    between atoms: _422  and  _423
REMARK  177  A    between atoms: _423  and  _424
REMARK  178  A    between atoms: _424  and  _425
REMARK  179  A    between atoms: _425  and  _426
REMARK  180  A    between atoms: _430  and  _432
REMARK  181  A    between atoms: _432  and  _433
REMARK  182  A    between atoms: _435  and  _437
REMARK  183  A    between atoms: _437  and  _438
REMARK  184  A    between atoms: _437  and  _440
REMARK  185  A    between atoms: _440  and  _441
REMARK  186  A    between atoms: _444  and  _446
REMARK  187  A    between atoms: _446  and  _447
REMARK  188  A    between atoms: _446  and  _449
REMARK  189  A    between atoms: _449  and  _450
REMARK  190  A    between atoms: _452  and  _454
REMARK  191  A    between atoms: _454  and  _455
REMARK  192  A    between atoms: _457  and  _459
REMARK  193  A    between atoms: _459  and  _460
REMARK  194  A    between atoms: _462  and  _464
REMARK  195  A    between atoms: _464  and  _465
REMARK  196  A    between atoms: _464  and  _467
REMARK  197  A    between atoms: _467  and  _468
REMARK  198  A    between atoms: _471  and  _473
REMARK  199  A    between atoms: _473  and  _474
REMARK  200  A    between atoms: _473  and  _476
REMARK  201  A    between atoms: _476  and  _477
REMARK  202  A    between atoms: _480  and  _482
REMARK  203  A    between atoms: _482  and  _483
REMARK  204  A    between atoms: _482  and  _485
REMARK  205  A    between atoms: _485  and  _486
REMARK  206  A    between atoms: _488  and  _490
REMARK  207  A    between atoms: _490  and  _491
REMARK  208  A    between atoms: _490  and  _493
REMARK  209  A    between atoms: _493  and  _494
REMARK  210  A    between atoms: _504  and  _506
REMARK  211  A    between atoms: _506  and  _507
REMARK  212  A    between atoms: _509  and  _511
REMARK  213  A    between atoms: _511  and  _512
REMARK  214  A    between atoms: _511  and  _514
REMARK  215  A    between atoms: _514  and  _515
REMARK  216  A    between atoms: _515  and  _516
REMARK  217  A    between atoms: _519  and  _521
REMARK  218  A    between atoms: _521  and  _522
REMARK  219  A    between atoms: _524  and  _526
REMARK  220  A    between atoms: _526  and  _527
REMARK  221  A    between atoms: _526  and  _529
REMARK  222  A    between atoms: _529  and  _530
REMARK  223  A    between atoms: _531  and  _533
REMARK  224  A    between atoms: _533  and  _534
REMARK  225  A    between atoms: _537  and  _539
REMARK  226  A    between atoms: _539  and  _540
REMARK  227  A    between atoms: _539  and  _542
REMARK  228  A    between atoms: _542  and  _543
REMARK  229  A    between atoms: _543  and  _544
REMARK  230  A    between atoms: _549  and  _551
REMARK  231  A    between atoms: _551  and  _552
REMARK  232  A    between atoms: _551  and  _554
REMARK  233  A    between atoms: _554  and  _555
REMARK  234  A    between atoms: _555  and  _556
REMARK  235  A    between atoms: _556  and  _557
REMARK  236  A    between atoms: _567  and  _568
REMARK  237  A    between atoms: _573  and  _575
REMARK  238  A    between atoms: _575  and  _576
REMARK  239  A    between atoms: _578  and  _580
REMARK  240  A    between atoms: _580  and  _581
REMARK  241  A    between atoms: _580  and  _583
REMARK  242  A    between atoms: _586  and  _588
REMARK  243  A    between atoms: _588  and  _589
REMARK  244  A    between atoms: _588  and  _591
REMARK  245  A    between atoms: _591  and  _592
REMARK  246  A    between atoms: _597  and  _598
REMARK  247  A    between atoms: _600  and  _602
REMARK  248  A    between atoms: _602  and  _603
REMARK  249  A    between atoms: _602  and  _605
REMARK  250  A    between atoms: _605  and  _606
REMARK                            x       y       z     vdW  Elec       q    Type
REMARK                         _______ _______ _______ _____ _____    ______ ____
ROOT
ATOM      1  O   HOH     1      13.270  24.294 -42.054  0.00  0.00    +0.000 OA
ENDROOT
TORSDOF 0
REMARK  Name = ../refined-set-2016/4x6p/4x6p_pocket.pdb
REMARK  250 active torsions:
REMARK  status: ('A' for Active; 'I' for Inactive)
REMARK    1  A    between atoms: _1  and  _5
REMARK    2  A    between atoms: _5  and  _6
REMARK    3  A    between atoms: _5  and  _8
REMARK    4  A    between atoms: _8  and  _9
REMARK    5  A    between atoms: _12  and  _14
REMARK    6  A    between atoms: _14  and  _15
REMARK    7  A    between atoms: _14  and  _17
REMARK    8  A    between atoms: _20  and  _22
REMARK    9  A    between atoms: _22  and  _23
REMARK   10  A    between atoms: _22  and  _25
REMARK   11  A    between atoms: _25  and  _26
REMARK   12  A    between atoms: _29  and  _31
REMARK   13  A    between atoms: _31  and  _32
REMARK   14  A    between atoms: _31  and  _34
REMARK   15  A    between atoms: _34  and  _35
REMARK   16  A    between atoms: _38  and  _40
REMARK   17  A    between atoms: _40  and  _41
REMARK   18  A    between atoms: _40  and  _43
REMARK   19  A    between atoms: _43  and  _44
REMARK   20  A    between atoms: _49  and  _51
REMARK   21  A    between atoms: _51  and  _52
REMARK   22  A    between atoms: _51  and  _54
REMARK   23  A    between atoms: _54  and  _55
REMARK   24  A    between atoms: _58  and  _60
REMARK   25  A    between atoms: _60  and  _61
REMARK   26  A    between atoms: _60  and  _63
REMARK   27  A    between atoms: _63  and  _64
REMARK   28  A    between atoms: _64  and  _65
REMARK   29  A    between atoms: _70  and  _72
REMARK   30  A    between atoms: _72  and  _73
REMARK   31  A    between atoms: _72  and  _75
REMARK   32  A    between atoms: _75  and  _76
REMARK   33  A    between atoms: _76  and  _77
REMARK   34  A    between atoms: _77  and  _78
REMARK   35  A    between atoms: _87  and  _89
REMARK   36  A    between atoms: _89  and  _90
REMARK   37  A    between atoms: _89  and  _92
REMARK   38  A    between atoms: _92  and  _93
REMARK   39  A    between atoms: _98  and  _100
REMARK   40  A    between atoms: _100  and  _101
REMARK   41  A    between atoms: _100  and  _103
REMARK   42  A    between atoms: _103  and  _104
REMARK   43  A    between atoms: _107  and  _109
REMARK   44  A    between atoms: _109  and  _110
REMARK   45  A    between atoms: _109  and  _112
REMARK   46  A    between atoms: _112  and  _113
REMARK   47  A    between atoms: _113  and  _148
REMARK   48  A    between atoms: _114  and  _116
REMARK   49  A    between atoms: _116  and  _117
REMARK   50  A    between atoms: _119  and  _121
REMARK   51  A    between atoms: _121  and  _122
REMARK   52  A    between atoms: _125  and  _127
REMARK   53  A    between atoms: _127  and  _128
REMARK   54  A    between atoms: _131  and  _133
REMARK   55  A    between atoms: _133  and  _134
REMARK   56  A    between atoms: _133  and  _136
REMARK   57  A    between atoms: _136  and  _137
REMARK   58  A    between atoms: _142  and  _144
REMARK   59  A    between atoms: _144  and  _145
REMARK   60  A    between atoms: _144  and  _147
REMARK   61  A    between atoms: _147  and  _148
REMARK   62  A    between atoms: _149  and  _151
REMARK   63  A    between atoms: _151  and  _152
REMARK   64  A    between atoms: _151  and  _154
REMARK   65  A    between atoms: _154  and  _155
REMARK   66  A    between atoms: _161  and  _163
REMARK   67  A    between atoms: _163  and  _164
REMARK   68  A    between atoms: _163  and  _166
REMARK   69  A    between atoms: _166  and  _167
REMARK   70  A    between atoms: _172  and  _173
REMARK   71  A    between atoms: _175  and  _177
REMARK   72  A    between atoms: _177  and  _178
REMARK   73  A    between atoms: _180  and  _182
REMARK   74  A    between atoms: _182  and  _183
REMARK   75  A    between atoms: _182  and  _185
REMARK   76  A    between atoms: _188  and  _190
REMARK   77  A    between atoms: _190  and  _191
REMARK   78  A    between atoms: _190  and  _193
REMARK   79  A    between atoms: _193  and  _194
REMARK   80  A    between atoms: _194  and  _195
REMARK   81  A    between atoms: _200  and  _202
REMARK   82  A    between atoms: _202  and  _203
REMARK   83  A    between atoms: _202  and  _205
REMARK   84  A    between atoms: _205  and  _206
REMARK   85  A    between atoms: _211  and  _212
REMARK   86  A    between atoms: _214  and  _216
REMARK   87  A    between atoms: _216  and  _217
REMARK   88  A    between atoms: _220  and  _222
REMARK   89  A    between atoms: _222  and  _223
REMARK   90  A    between atoms: _222  and  _225
REMARK   91  A    between atoms: _225  and  _226
REMARK   92  A    between atoms: _229  and  _231
REMARK   93  A    between atoms: _231  and  _232
REMARK   94  A    between atoms: _231  and  _234
REMARK   95  A    between atoms: _237  and  _239
REMARK   96  A    between atoms: _239  and  _240
REMARK   97  A    between atoms: _239  and  _242
REMARK   98  A    between atoms: _242  and  _243
REMARK   99  A    between atoms: _253  and  _255
REMARK  100  A    between atoms: _255  and  _256
REMARK  101  A    between atoms: _258  and  _260
REMARK  102  A    between atoms: _260  and  _261
REMARK  103  A    between atoms: _260  and  _263
REMARK  104  A    between atoms: _263  and  _264
REMARK  105  A    between atoms: _269  and  _270
REMARK  106  A    between atoms: _272  and  _274
REMARK  107  A    between atoms: _274  and  _275
REMARK  108  A    between atoms: _274  and  _277
REMARK  109  A    between atoms: _277  and  _278
REMARK  110  A    between atoms: _278  and  _279
REMARK  111  A    between atoms: _279  and  _280
REMARK  112  A    between atoms: _280  and  _281
REMARK  113  A    between atoms: _285  and  _287
REMARK  114  A    between atoms: _287  and  _288
REMARK  115  A    between atoms: _287  and  _290
REMARK  116  A    between atoms: _290  and  _291
REMARK  117  A    between atoms: _294  and  _296
REMARK  118  A    between atoms: _296  and  _297
REMARK  119  A    between atoms: _296  and  _299
REMARK  120  A    between atoms: _299  and  _300
REMARK  121  A    between atoms: _303  and  _305
REMARK  122  A    between atoms: _305  and  _306
REMARK  123  A    between atoms: _305  and  _308
REMARK  124  A    between atoms: _308  and  _309
REMARK  125  A    between atoms: _309  and  _310
REMARK  126  A    between atoms: _310  and  _311
REMARK  127  A    between atoms: _311  and  _312
REMARK  128  A    between atoms: _316  and  _318
REMARK  129  A    between atoms: _318  and  _319
REMARK  130  A    between atoms: _318  and  _321
REMARK  131  A    between atoms: _321  and  _322
REMARK  132  A    between atoms: _325  and  _327
REMARK  133  A    between atoms: _327  and  _328
REMARK  134  A    between atoms: _327  and  _330
REMARK  135  A    between atoms: _330  and  _331
REMARK  136  A    between atoms: _331  and  _332
REMARK  137  A    between atoms: _337  and  _339
REMARK  138  A    between atoms: _339  and  _340
REMARK  139  A    between atoms: _339  and  _342
REMARK  140  A    between atoms: _342  and  _343
REMARK  141  A    between atoms: _346  and  _348
REMARK  142  A    between atoms: _348  and  _349
REMARK  143  A    between atoms: _348  and  _351
REMARK  144  A    between atoms: _351  and  _352
REMARK  145  A    between atoms: _357  and  _358
REMARK  146  A    between atoms: _360  and  _362
REMARK  147  A    between atoms: _362  and  _363
REMARK  148  A    between atoms: _362  and  _365
REMARK  149  A    between atoms: _365  and  _366
REMARK  150  A    between atoms: _369  and  _371
REMARK  151  A    between atoms: _371  and  _372
REMARK  152  A    between atoms: _371  and  _374
REMARK  153  A    between atoms: _376  and  _378
REMARK  154  A    between atoms: _378  and  _379
REMARK  155  A    between atoms: _382  and  _384
REMARK  156  A    between atoms: _384  and  _385
REMARK  157  A    between atoms: _384  and  _387
REMARK  158  A    between atoms: _387  and  _388
REMARK  159  A    between atoms: _388  and  _389
REMARK  160  A    between atoms: _389  and  _390
REMARK  161  A    between atoms: _390  and  _391
REMARK  162  A    between atoms: _395  and  _397
REMARK  163  A    between atoms: _397  and  _398
REMARK  164  A    between atoms: _397  and  _400
REMARK  165  A    between atoms: _400  and  _401
REMARK  166  A    between atoms: _404  and  _406
REMARK  167  A    between atoms: _406  and  _407
REMARK  168  A    between atoms: _410  and  _412
REMARK  169  A    between atoms: _412  and  _413
REMARK  170  A    between atoms: _412  and  _415
REMARK  171  A    between atoms: _415  and  _416
REMARK  172  A    between atoms: _416  and  _530
REMARK  173  A    between atoms: _417  and  _419
REMARK  174  A    between atoms: _419  and  _420
REMARK  175  A    between atoms: _419  and  _422
REMARK  176  A    between atoms: _422  and  _423
REMARK  177  A    between atoms: _423  and  _424
REMARK  178  A    between atoms: _424  and  _425
REMARK  179  A    between atoms: _425  and  _426
REMARK  180  A    between atoms: _430  and  _432
REMARK  181  A    between atoms: _432  and  _433
REMARK  182  A    between atoms: _435  and  _437
REMARK  183  A    between atoms: _437  and  _438
REMARK  184  A    between atoms: _437  and  _440
REMARK  185  A    between atoms: _440  and  _441
REMARK  186  A    between atoms: _444  and  _446
REMARK  187  A    between atoms: _446  and  _447
REMARK  188  A    between atoms: _446  and  _449
REMARK  189  A    between atoms: _449  and  _450
REMARK  190  A    between atoms: _452  and  _454
REMARK  191  A    between atoms: _454  and  _455
REMARK  192  A    between atoms: _457  and  _459
REMARK  193  A    between atoms: _459  and  _460
REMARK  194  A    between atoms: _462  and  _464
REMARK  195  A    between atoms: _464  and  _465
REMARK  196  A    between atoms: _464  and  _467
REMARK  197  A    between atoms: _467  and  _468
REMARK  198  A    between atoms: _471  and  _473
REMARK  199  A    between atoms: _473  and  _474
REMARK  200  A    between atoms: _473  and  _476
REMARK  201  A    between atoms: _476  and  _477
REMARK  202  A    between atoms: _480  and  _482
REMARK  203  A    between atoms: _482  and  _483
REMARK  204  A    between atoms: _482  and  _485
REMARK  205  A    between atoms: _485  and  _486
REMARK  206  A    between atoms: _488  and  _490
REMARK  207  A    between atoms: _490  and  _491
REMARK  208  A    between atoms: _490  and  _493
REMARK  209  A    between atoms: _493  and  _494
REMARK  210  A    between atoms: _504  and  _506
REMARK  211  A    between atoms: _506  and  _507
REMARK  212  A    between atoms: _509  and  _511
REMARK  213  A    between atoms: _511  and  _512
REMARK  214  A    between atoms: _511  and  _514
REMARK  215  A    between atoms: _514  and  _515
REMARK  216  A    between atoms: _515  and  _516
REMARK  217  A    between atoms: _519  and  _521
REMARK  218  A    between atoms: _521  and  _522
REMARK  219  A    between atoms: _524  and  _526
REMARK  220  A    between atoms: _526  and  _527
REMARK  221  A    between atoms: _526  and  _529
REMARK  222  A    between atoms: _529  and  _530
REMARK  223  A    between atoms: _531  and  _533
REMARK  224  A    between atoms: _533  and  _534
REMARK  225  A    between atoms: _537  and  _539
REMARK  226  A    between atoms: _539  and  _540
REMARK  227  A    between atoms: _539  and  _542
REMARK  228  A    between atoms: _542  and  _543
REMARK  229  A    between atoms: _543  and  _544
REMARK  230  A    between atoms: _549  and  _551
REMARK  231  A    between atoms: _551  and  _552
REMARK  232  A    between atoms: _551  and  _554
REMARK  233  A    between atoms: _554  and  _555
REMARK  234  A    between atoms: _555  and  _556
REMARK  235  A    between atoms: _556  and  _557
REMARK  236  A    between atoms: _567  and  _568
REMARK  237  A    between atoms: _573  and  _575
REMARK  238  A    between atoms: _575  and  _576
REMARK  239  A    between atoms: _578  and  _580
REMARK  240  A    between atoms: _580  and  _581
REMARK  241  A    between atoms: _580  and  _583
REMARK  242  A    between atoms: _586  and  _588
REMARK  243  A    between atoms: _588  and  _589
REMARK  244  A    between atoms: _588  and  _591
REMARK  245  A    between atoms: _591  and  _592
REMARK  246  A    between atoms: _597  and  _598
REMARK  247  A    between atoms: _600  and  _602
REMARK  248  A    between atoms: _602  and  _603
REMARK  249  A    between atoms: _602  and  _605
REMARK  250  A    between atoms: _605  and  _606
REMARK                            x       y       z     vdW  Elec       q    Type
REMARK                         _______ _______ _______ _____ _____    ______ ____
ROOT
ATOM      1  O   HOH     1      13.520  19.720 -45.842  0.00  0.00    +0.000 OA
ENDROOT
TORSDOF 0
