REMARK  Name = ../refined-set-2016/4fut/4fut_pocket.pdb
REMARK  234 active torsions:
REMARK  status: ('A' for Active; 'I' for Inactive)
REMARK    1  A    between atoms: _1  and  _3
REMARK    2  A    between atoms: _3  and  _4
REMARK    3  A    between atoms: _3  and  _6
REMARK    4  A    between atoms: _6  and  _7
REMARK    5  A    between atoms: _12  and  _13
REMARK    6  A    between atoms: _15  and  _17
REMARK    7  A    between atoms: _17  and  _18
REMARK    8  A    between atoms: _17  and  _20
REMARK    9  A    between atoms: _20  and  _21
REMARK   10  A    between atoms: _24  and  _26
REMARK   11  A    between atoms: _26  and  _27
REMARK   12  A    between atoms: _26  and  _29
REMARK   13  A    between atoms: _29  and  _30
REMARK   14  A    between atoms: _35  and  _36
REMARK   15  A    between atoms: _38  and  _40
REMARK   16  A    between atoms: _40  and  _41
REMARK   17  A    between atoms: _40  and  _43
REMARK   18  A    between atoms: _43  and  _44
REMARK   19  A    between atoms: _47  and  _49
REMARK   20  A    between atoms: _49  and  _50
REMARK   21  A    between atoms: _49  and  _52
REMARK   22  A    between atoms: _52  and  _53
REMARK   23  A    between atoms: _55  and  _57
REMARK   24  A    between atoms: _57  and  _58
REMARK   25  A    between atoms: _60  and  _62
REMARK   26  A    between atoms: _62  and  _63
REMARK   27  A    between atoms: _62  and  _65
REMARK   28  A    between atoms: _65  and  _66
REMARK   29  A    between atoms: _69  and  _71
REMARK   30  A    between atoms: _71  and  _72
REMARK   31  A    between atoms: _71  and  _74
REMARK   32  A    between atoms: _74  and  _75
REMARK   33  A    between atoms: _78  and  _80
REMARK   34  A    between atoms: _80  and  _81
REMARK   35  A    between atoms: _83  and  _85
REMARK   36  A    between atoms: _85  and  _86
REMARK   37  A    between atoms: _85  and  _88
REMARK   38  A    between atoms: _88  and  _89
REMARK   39  A    between atoms: _89  and  _90
REMARK   40  A    between atoms: _90  and  _91
REMARK   41  A    between atoms: _100  and  _102
REMARK   42  A    between atoms: _102  and  _103
REMARK   43  A    between atoms: _102  and  _105
REMARK   44  A    between atoms: _105  and  _106
REMARK   45  A    between atoms: _108  and  _110
REMARK   46  A    between atoms: _110  and  _111
REMARK   47  A    between atoms: _110  and  _119
REMARK   48  A    between atoms: _111  and  _112
REMARK   49  A    between atoms: _112  and  _113
REMARK   50  A    between atoms: _113  and  _114
REMARK   51  A    between atoms: _114  and  _115
REMARK   52  A    between atoms: _121  and  _123
REMARK   53  A    between atoms: _123  and  _124
REMARK   54  A    between atoms: _123  and  _126
REMARK   55  A    between atoms: _126  and  _127
REMARK   56  A    between atoms: _132  and  _134
REMARK   57  A    between atoms: _134  and  _135
REMARK   58  A    between atoms: _134  and  _137
REMARK   59  A    between atoms: _137  and  _138
REMARK   60  A    between atoms: _141  and  _143
REMARK   61  A    between atoms: _143  and  _144
REMARK   62  A    between atoms: _143  and  _146
REMARK   63  A    between atoms: _146  and  _147
REMARK   64  A    between atoms: _153  and  _154
REMARK   65  A    between atoms: _159  and  _161
REMARK   66  A    between atoms: _161  and  _162
REMARK   67  A    between atoms: _161  and  _164
REMARK   68  A    between atoms: _164  and  _165
REMARK   69  A    between atoms: _167  and  _169
REMARK   70  A    between atoms: _169  and  _170
REMARK   71  A    between atoms: _172  and  _174
REMARK   72  A    between atoms: _174  and  _175
REMARK   73  A    between atoms: _174  and  _177
REMARK   74  A    between atoms: _177  and  _178
REMARK   75  A    between atoms: _180  and  _182
REMARK   76  A    between atoms: _182  and  _183
REMARK   77  A    between atoms: _187  and  _188
REMARK   78  A    between atoms: _193  and  _195
REMARK   79  A    between atoms: _195  and  _196
REMARK   80  A    between atoms: _195  and  _198
REMARK   81  A    between atoms: _198  and  _199
REMARK   82  A    between atoms: _202  and  _204
REMARK   83  A    between atoms: _204  and  _205
REMARK   84  A    between atoms: _204  and  _207
REMARK   85  A    between atoms: _207  and  _208
REMARK   86  A    between atoms: _211  and  _213
REMARK   87  A    between atoms: _213  and  _214
REMARK   88  A    between atoms: _213  and  _216
REMARK   89  A    between atoms: _216  and  _217
REMARK   90  A    between atoms: _217  and  _218
REMARK   91  A    between atoms: _221  and  _223
REMARK   92  A    between atoms: _223  and  _224
REMARK   93  A    between atoms: _223  and  _226
REMARK   94  A    between atoms: _226  and  _227
REMARK   95  A    between atoms: _227  and  _228
REMARK   96  A    between atoms: _228  and  _229
REMARK   97  A    between atoms: _238  and  _240
REMARK   98  A    between atoms: _240  and  _241
REMARK   99  A    between atoms: _240  and  _243
REMARK  100  A    between atoms: _243  and  _244
REMARK  101  A    between atoms: _249  and  _250
REMARK  102  A    between atoms: _252  and  _254
REMARK  103  A    between atoms: _254  and  _255
REMARK  104  A    between atoms: _257  and  _259
REMARK  105  A    between atoms: _259  and  _260
REMARK  106  A    between atoms: _259  and  _262
REMARK  107  A    between atoms: _262  and  _263
REMARK  108  A    between atoms: _263  and  _264
REMARK  109  A    between atoms: _266  and  _268
REMARK  110  A    between atoms: _268  and  _269
REMARK  111  A    between atoms: _268  and  _271
REMARK  112  A    between atoms: _271  and  _272
REMARK  113  A    between atoms: _275  and  _277
REMARK  114  A    between atoms: _277  and  _278
REMARK  115  A    between atoms: _277  and  _280
REMARK  116  A    between atoms: _280  and  _281
REMARK  117  A    between atoms: _281  and  _282
REMARK  118  A    between atoms: _285  and  _287
REMARK  119  A    between atoms: _287  and  _288
REMARK  120  A    between atoms: _287  and  _290
REMARK  121  A    between atoms: _290  and  _291
REMARK  122  A    between atoms: _294  and  _296
REMARK  123  A    between atoms: _296  and  _297
REMARK  124  A    between atoms: _296  and  _299
REMARK  125  A    between atoms: _299  and  _300
REMARK  126  A    between atoms: _305  and  _307
REMARK  127  A    between atoms: _307  and  _308
REMARK  128  A    between atoms: _307  and  _310
REMARK  129  A    between atoms: _310  and  _311
REMARK  130  A    between atoms: _311  and  _312
REMARK  131  A    between atoms: _314  and  _316
REMARK  132  A    between atoms: _316  and  _317
REMARK  133  A    between atoms: _316  and  _319
REMARK  134  A    between atoms: _319  and  _320
REMARK  135  A    between atoms: _325  and  _327
REMARK  136  A    between atoms: _327  and  _328
REMARK  137  A    between atoms: _327  and  _330
REMARK  138  A    between atoms: _330  and  _331
REMARK  139  A    between atoms: _334  and  _336
REMARK  140  A    between atoms: _336  and  _337
REMARK  141  A    between atoms: _336  and  _339
REMARK  142  A    between atoms: _339  and  _340
REMARK  143  A    between atoms: _345  and  _347
REMARK  144  A    between atoms: _347  and  _348
REMARK  145  A    between atoms: _350  and  _352
REMARK  146  A    between atoms: _352  and  _353
REMARK  147  A    between atoms: _356  and  _358
REMARK  148  A    between atoms: _358  and  _359
REMARK  149  A    between atoms: _358  and  _361
REMARK  150  A    between atoms: _364  and  _366
REMARK  151  A    between atoms: _366  and  _367
REMARK  152  A    between atoms: _369  and  _371
REMARK  153  A    between atoms: _371  and  _372
REMARK  154  A    between atoms: _371  and  _374
REMARK  155  A    between atoms: _374  and  _375
REMARK  156  A    between atoms: _380  and  _381
REMARK  157  A    between atoms: _383  and  _385
REMARK  158  A    between atoms: _385  and  _386
REMARK  159  A    between atoms: _385  and  _388
REMARK  160  A    between atoms: _388  and  _389
REMARK  161  A    between atoms: _395  and  _397
REMARK  162  A    between atoms: _397  and  _398
REMARK  163  A    between atoms: _397  and  _400
REMARK  164  A    between atoms: _400  and  _401
REMARK  165  A    between atoms: _404  and  _406
REMARK  166  A    between atoms: _406  and  _407
REMARK  167  A    between atoms: _406  and  _409
REMARK  168  A    between atoms: _409  and  _410
REMARK  169  A    between atoms: _413  and  _415
REMARK  170  A    between atoms: _415  and  _416
REMARK  171  A    between atoms: _418  and  _420
REMARK  172  A    between atoms: _420  and  _421
REMARK  173  A    between atoms: _420  and  _423
REMARK  174  A    between atoms: _423  and  _424
REMARK  175  A    between atoms: _427  and  _429
REMARK  176  A    between atoms: _429  and  _430
REMARK  177  A    between atoms: _429  and  _432
REMARK  178  A    between atoms: _432  and  _433
REMARK  179  A    between atoms: _436  and  _438
REMARK  180  A    between atoms: _438  and  _439
REMARK  181  A    between atoms: _438  and  _441
REMARK  182  A    between atoms: _441  and  _442
REMARK  183  A    between atoms: _447  and  _449
REMARK  184  A    between atoms: _449  and  _450
REMARK  185  A    between atoms: _449  and  _452
REMARK  186  A    between atoms: _452  and  _453
REMARK  187  A    between atoms: _456  and  _458
REMARK  188  A    between atoms: _458  and  _459
REMARK  189  A    between atoms: _458  and  _461
REMARK  190  A    between atoms: _461  and  _462
REMARK  191  A    between atoms: _465  and  _467
REMARK  192  A    between atoms: _467  and  _468
REMARK  193  A    between atoms: _470  and  _472
REMARK  194  A    between atoms: _472  and  _473
REMARK  195  A    between atoms: _472  and  _475
REMARK  196  A    between atoms: _475  and  _476
REMARK  197  A    between atoms: _476  and  _477
REMARK  198  A    between atoms: _477  and  _478
REMARK  199  A    between atoms: _487  and  _489
REMARK  200  A    between atoms: _489  and  _490
REMARK  201  A    between atoms: _492  and  _494
REMARK  202  A    between atoms: _494  and  _495
REMARK  203  A    between atoms: _494  and  _497
REMARK  204  A    between atoms: _497  and  _498
REMARK  205  A    between atoms: _501  and  _503
REMARK  206  A    between atoms: _503  and  _504
REMARK  207  A    between atoms: _503  and  _512
REMARK  208  A    between atoms: _504  and  _505
REMARK  209  A    between atoms: _505  and  _506
REMARK  210  A    between atoms: _506  and  _507
REMARK  211  A    between atoms: _507  and  _508
REMARK  212  A    between atoms: _514  and  _516
REMARK  213  A    between atoms: _516  and  _517
REMARK  214  A    between atoms: _516  and  _519
REMARK  215  A    between atoms: _519  and  _520
REMARK  216  A    between atoms: _525  and  _527
REMARK  217  A    between atoms: _527  and  _528
REMARK  218  A    between atoms: _527  and  _530
REMARK  219  A    between atoms: _530  and  _531
REMARK  220  A    between atoms: _531  and  _532
REMARK  221  A    between atoms: _534  and  _536
REMARK  222  A    between atoms: _536  and  _537
REMARK  223  A    between atoms: _540  and  _542
REMARK  224  A    between atoms: _542  and  _543
REMARK  225  A    between atoms: _542  and  _545
REMARK  226  A    between atoms: _548  and  _550
REMARK  227  A    between atoms: _550  and  _551
REMARK  228  A    between atoms: _550  and  _553
REMARK  229  A    between atoms: _553  and  _554
REMARK  230  A    between atoms: _554  and  _555
REMARK  231  A    between atoms: _560  and  _562
REMARK  232  A    between atoms: _562  and  _563
REMARK  233  A    between atoms: _562  and  _565
REMARK  234  A    between atoms: _565  and  _566
REMARK                            x       y       z     vdW  Elec       q    Type
REMARK                         _______ _______ _______ _____ _____    ______ ____
ROOT
ATOM      1  CG  TYR A   1      44.668 -43.268   5.950  0.00  0.00    -0.020 A 
ATOM      2  CD2 TYR A   1      44.902 -44.618   5.731  0.00  0.00    -0.001 A 
ATOM      3  CE2 TYR A   1      44.515 -45.230   4.555  0.00  0.00    +0.036 A 
ATOM      4  CZ  TYR A   1      43.893 -44.495   3.573  0.00  0.00    +0.134 A 
ATOM      5  CE1 TYR A   1      43.654 -43.148   3.754  0.00  0.00    +0.036 A 
ATOM      6  CD1 TYR A   1      44.052 -42.539   4.943  0.00  0.00    -0.001 A 
ENDROOT
BRANCH   4   7
ATOM      7  OH  TYR A   1      43.521 -45.124   2.407  0.00  0.00    -0.506 OA
ATOM      8  HH  TYR A   1      43.770 -46.081   2.456  0.00  0.00    +0.292 HD
ENDBRANCH   4   7
BRANCH   1   9
ATOM      9  CB  TYR A   1      45.108 -42.604   7.241  0.00  0.00    +0.051 C 
BRANCH   9  10
ATOM     10  CA  TYR A   1      44.858 -43.435   8.504  0.00  0.00    +0.137 C 
BRANCH  10  11
ATOM     11  N   TYR A   1      43.443 -43.412   8.882  0.00  0.00    -0.239 NA
ATOM     12  H   TYR A   1      42.758 -42.886   8.303  0.00  0.00    +0.142 HD
ENDBRANCH  10  11
BRANCH  10  13
ATOM     13  C   TYR A   1      45.749 -42.920   9.634  0.00  0.00    +0.224 C 
ATOM     14  O   TYR A   1      45.457 -41.892  10.247  0.00  0.00    -0.287 OA
ENDBRANCH  10  13
ENDBRANCH   9  10
ENDBRANCH   1   9
TORSDOF 5
REMARK  Name = ../refined-set-2016/4fut/4fut_pocket.pdb
REMARK  234 active torsions:
REMARK  status: ('A' for Active; 'I' for Inactive)
REMARK    1  A    between atoms: _1  and  _3
REMARK    2  A    between atoms: _3  and  _4
REMARK    3  A    between atoms: _3  and  _6
REMARK    4  A    between atoms: _6  and  _7
REMARK    5  A    between atoms: _12  and  _13
REMARK    6  A    between atoms: _15  and  _17
REMARK    7  A    between atoms: _17  and  _18
REMARK    8  A    between atoms: _17  and  _20
REMARK    9  A    between atoms: _20  and  _21
REMARK   10  A    between atoms: _24  and  _26
REMARK   11  A    between atoms: _26  and  _27
REMARK   12  A    between atoms: _26  and  _29
REMARK   13  A    between atoms: _29  and  _30
REMARK   14  A    between atoms: _35  and  _36
REMARK   15  A    between atoms: _38  and  _40
REMARK   16  A    between atoms: _40  and  _41
REMARK   17  A    between atoms: _40  and  _43
REMARK   18  A    between atoms: _43  and  _44
REMARK   19  A    between atoms: _47  and  _49
REMARK   20  A    between atoms: _49  and  _50
REMARK   21  A    between atoms: _49  and  _52
REMARK   22  A    between atoms: _52  and  _53
REMARK   23  A    between atoms: _55  and  _57
REMARK   24  A    between atoms: _57  and  _58
REMARK   25  A    between atoms: _60  and  _62
REMARK   26  A    between atoms: _62  and  _63
REMARK   27  A    between atoms: _62  and  _65
REMARK   28  A    between atoms: _65  and  _66
REMARK   29  A    between atoms: _69  and  _71
REMARK   30  A    between atoms: _71  and  _72
REMARK   31  A    between atoms: _71  and  _74
REMARK   32  A    between atoms: _74  and  _75
REMARK   33  A    between atoms: _78  and  _80
REMARK   34  A    between atoms: _80  and  _81
REMARK   35  A    between atoms: _83  and  _85
REMARK   36  A    between atoms: _85  and  _86
REMARK   37  A    between atoms: _85  and  _88
REMARK   38  A    between atoms: _88  and  _89
REMARK   39  A    between atoms: _89  and  _90
REMARK   40  A    between atoms: _90  and  _91
REMARK   41  A    between atoms: _100  and  _102
REMARK   42  A    between atoms: _102  and  _103
REMARK   43  A    between atoms: _102  and  _105
REMARK   44  A    between atoms: _105  and  _106
REMARK   45  A    between atoms: _108  and  _110
REMARK   46  A    between atoms: _110  and  _111
REMARK   47  A    between atoms: _110  and  _119
REMARK   48  A    between atoms: _111  and  _112
REMARK   49  A    between atoms: _112  and  _113
REMARK   50  A    between atoms: _113  and  _114
REMARK   51  A    between atoms: _114  and  _115
REMARK   52  A    between atoms: _121  and  _123
REMARK   53  A    between atoms: _123  and  _124
REMARK   54  A    between atoms: _123  and  _126
REMARK   55  A    between atoms: _126  and  _127
REMARK   56  A    between atoms: _132  and  _134
REMARK   57  A    between atoms: _134  and  _135
REMARK   58  A    between atoms: _134  and  _137
REMARK   59  A    between atoms: _137  and  _138
REMARK   60  A    between atoms: _141  and  _143
REMARK   61  A    between atoms: _143  and  _144
REMARK   62  A    between atoms: _143  and  _146
REMARK   63  A    between atoms: _146  and  _147
REMARK   64  A    between atoms: _153  and  _154
REMARK   65  A    between atoms: _159  and  _161
REMARK   66  A    between atoms: _161  and  _162
REMARK   67  A    between atoms: _161  and  _164
REMARK   68  A    between atoms: _164  and  _165
REMARK   69  A    between atoms: _167  and  _169
REMARK   70  A    between atoms: _169  and  _170
REMARK   71  A    between atoms: _172  and  _174
REMARK   72  A    between atoms: _174  and  _175
REMARK   73  A    between atoms: _174  and  _177
REMARK   74  A    between atoms: _177  and  _178
REMARK   75  A    between atoms: _180  and  _182
REMARK   76  A    between atoms: _182  and  _183
REMARK   77  A    between atoms: _187  and  _188
REMARK   78  A    between atoms: _193  and  _195
REMARK   79  A    between atoms: _195  and  _196
REMARK   80  A    between atoms: _195  and  _198
REMARK   81  A    between atoms: _198  and  _199
REMARK   82  A    between atoms: _202  and  _204
REMARK   83  A    between atoms: _204  and  _205
REMARK   84  A    between atoms: _204  and  _207
REMARK   85  A    between atoms: _207  and  _208
REMARK   86  A    between atoms: _211  and  _213
REMARK   87  A    between atoms: _213  and  _214
REMARK   88  A    between atoms: _213  and  _216
REMARK   89  A    between atoms: _216  and  _217
REMARK   90  A    between atoms: _217  and  _218
REMARK   91  A    between atoms: _221  and  _223
REMARK   92  A    between atoms: _223  and  _224
REMARK   93  A    between atoms: _223  and  _226
REMARK   94  A    between atoms: _226  and  _227
REMARK   95  A    between atoms: _227  and  _228
REMARK   96  A    between atoms: _228  and  _229
REMARK   97  A    between atoms: _238  and  _240
REMARK   98  A    between atoms: _240  and  _241
REMARK   99  A    between atoms: _240  and  _243
REMARK  100  A    between atoms: _243  and  _244
REMARK  101  A    between atoms: _249  and  _250
REMARK  102  A    between atoms: _252  and  _254
REMARK  103  A    between atoms: _254  and  _255
REMARK  104  A    between atoms: _257  and  _259
REMARK  105  A    between atoms: _259  and  _260
REMARK  106  A    between atoms: _259  and  _262
REMARK  107  A    between atoms: _262  and  _263
REMARK  108  A    between atoms: _263  and  _264
REMARK  109  A    between atoms: _266  and  _268
REMARK  110  A    between atoms: _268  and  _269
REMARK  111  A    between atoms: _268  and  _271
REMARK  112  A    between atoms: _271  and  _272
REMARK  113  A    between atoms: _275  and  _277
REMARK  114  A    between atoms: _277  and  _278
REMARK  115  A    between atoms: _277  and  _280
REMARK  116  A    between atoms: _280  and  _281
REMARK  117  A    between atoms: _281  and  _282
REMARK  118  A    between atoms: _285  and  _287
REMARK  119  A    between atoms: _287  and  _288
REMARK  120  A    between atoms: _287  and  _290
REMARK  121  A    between atoms: _290  and  _291
REMARK  122  A    between atoms: _294  and  _296
REMARK  123  A    between atoms: _296  and  _297
REMARK  124  A    between atoms: _296  and  _299
REMARK  125  A    between atoms: _299  and  _300
REMARK  126  A    between atoms: _305  and  _307
REMARK  127  A    between atoms: _307  and  _308
REMARK  128  A    between atoms: _307  and  _310
REMARK  129  A    between atoms: _310  and  _311
REMARK  130  A    between atoms: _311  and  _312
REMARK  131  A    between atoms: _314  and  _316
REMARK  132  A    between atoms: _316  and  _317
REMARK  133  A    between atoms: _316  and  _319
REMARK  134  A    between atoms: _319  and  _320
REMARK  135  A    between atoms: _325  and  _327
REMARK  136  A    between atoms: _327  and  _328
REMARK  137  A    between atoms: _327  and  _330
REMARK  138  A    between atoms: _330  and  _331
REMARK  139  A    between atoms: _334  and  _336
REMARK  140  A    between atoms: _336  and  _337
REMARK  141  A    between atoms: _336  and  _339
REMARK  142  A    between atoms: _339  and  _340
REMARK  143  A    between atoms: _345  and  _347
REMARK  144  A    between atoms: _347  and  _348
REMARK  145  A    between atoms: _350  and  _352
REMARK  146  A    between atoms: _352  and  _353
REMARK  147  A    between atoms: _356  and  _358
REMARK  148  A    between atoms: _358  and  _359
REMARK  149  A    between atoms: _358  and  _361
REMARK  150  A    between atoms: _364  and  _366
REMARK  151  A    between atoms: _366  and  _367
REMARK  152  A    between atoms: _369  and  _371
REMARK  153  A    between atoms: _371  and  _372
REMARK  154  A    between atoms: _371  and  _374
REMARK  155  A    between atoms: _374  and  _375
REMARK  156  A    between atoms: _380  and  _381
REMARK  157  A    between atoms: _383  and  _385
REMARK  158  A    between atoms: _385  and  _386
REMARK  159  A    between atoms: _385  and  _388
REMARK  160  A    between atoms: _388  and  _389
REMARK  161  A    between atoms: _395  and  _397
REMARK  162  A    between atoms: _397  and  _398
REMARK  163  A    between atoms: _397  and  _400
REMARK  164  A    between atoms: _400  and  _401
REMARK  165  A    between atoms: _404  and  _406
REMARK  166  A    between atoms: _406  and  _407
REMARK  167  A    between atoms: _406  and  _409
REMARK  168  A    between atoms: _409  and  _410
REMARK  169  A    between atoms: _413  and  _415
REMARK  170  A    between atoms: _415  and  _416
REMARK  171  A    between atoms: _418  and  _420
REMARK  172  A    between atoms: _420  and  _421
REMARK  173  A    between atoms: _420  and  _423
REMARK  174  A    between atoms: _423  and  _424
REMARK  175  A    between atoms: _427  and  _429
REMARK  176  A    between atoms: _429  and  _430
REMARK  177  A    between atoms: _429  and  _432
REMARK  178  A    between atoms: _432  and  _433
REMARK  179  A    between atoms: _436  and  _438
REMARK  180  A    between atoms: _438  and  _439
REMARK  181  A    between atoms: _438  and  _441
REMARK  182  A    between atoms: _441  and  _442
REMARK  183  A    between atoms: _447  and  _449
REMARK  184  A    between atoms: _449  and  _450
REMARK  185  A    between atoms: _449  and  _452
REMARK  186  A    between atoms: _452  and  _453
REMARK  187  A    between atoms: _456  and  _458
REMARK  188  A    between atoms: _458  and  _459
REMARK  189  A    between atoms: _458  and  _461
REMARK  190  A    between atoms: _461  and  _462
REMARK  191  A    between atoms: _465  and  _467
REMARK  192  A    between atoms: _467  and  _468
REMARK  193  A    between atoms: _470  and  _472
REMARK  194  A    between atoms: _472  and  _473
REMARK  195  A    between atoms: _472  and  _475
REMARK  196  A    between atoms: _475  and  _476
REMARK  197  A    between atoms: _476  and  _477
REMARK  198  A    between atoms: _477  and  _478
REMARK  199  A    between atoms: _487  and  _489
REMARK  200  A    between atoms: _489  and  _490
REMARK  201  A    between atoms: _492  and  _494
REMARK  202  A    between atoms: _494  and  _495
REMARK  203  A    between atoms: _494  and  _497
REMARK  204  A    between atoms: _497  and  _498
REMARK  205  A    between atoms: _501  and  _503
REMARK  206  A    between atoms: _503  and  _504
REMARK  207  A    between atoms: _503  and  _512
REMARK  208  A    between atoms: _504  and  _505
REMARK  209  A    between atoms: _505  and  _506
REMARK  210  A    between atoms: _506  and  _507
REMARK  211  A    between atoms: _507  and  _508
REMARK  212  A    between atoms: _514  and  _516
REMARK  213  A    between atoms: _516  and  _517
REMARK  214  A    between atoms: _516  and  _519
REMARK  215  A    between atoms: _519  and  _520
REMARK  216  A    between atoms: _525  and  _527
REMARK  217  A    between atoms: _527  and  _528
REMARK  218  A    between atoms: _527  and  _530
REMARK  219  A    between atoms: _530  and  _531
REMARK  220  A    between atoms: _531  and  _532
REMARK  221  A    between atoms: _534  and  _536
REMARK  222  A    between atoms: _536  and  _537
REMARK  223  A    between atoms: _540  and  _542
REMARK  224  A    between atoms: _542  and  _543
REMARK  225  A    between atoms: _542  and  _545
REMARK  226  A    between atoms: _548  and  _550
REMARK  227  A    between atoms: _550  and  _551
REMARK  228  A    between atoms: _550  and  _553
REMARK  229  A    between atoms: _553  and  _554
REMARK  230  A    between atoms: _554  and  _555
REMARK  231  A    between atoms: _560  and  _562
REMARK  232  A    between atoms: _562  and  _563
REMARK  233  A    between atoms: _562  and  _565
REMARK  234  A    between atoms: _565  and  _566
REMARK                            x       y       z     vdW  Elec       q    Type
REMARK                         _______ _______ _______ _____ _____    ______ ____
ROOT
ATOM      1  C   THR A   6      42.393 -54.303  -2.099  0.00  0.00    +0.243 C 
ATOM      2  O   THR A   6      42.767 -55.361  -1.596  0.00  0.00    -0.273 OA
ATOM      3  N   THR A   7      42.845 -53.875  -3.276  0.00  0.00    -0.295 N 
ATOM      4  H   THR A   7      42.569 -52.932  -3.617  0.00  0.00    +0.150 HD
ENDROOT
BRANCH   1   5
ATOM      5  CA  THR A   6      41.374 -53.416  -1.367  0.00  0.00    +0.176 C 
BRANCH   5   8
ATOM      6  C   GLY A   5      42.874 -51.550  -0.911  0.00  0.00    +0.243 C 
ATOM      7  O   GLY A   5      43.721 -52.303  -0.418  0.00  0.00    -0.273 OA
ATOM      8  N   THR A   6      41.720 -51.993  -1.406  0.00  0.00    -0.295 N 
ATOM      9  H   THR A   6      41.052 -51.317  -1.828  0.00  0.00    +0.150 HD
BRANCH   6  10
ATOM     10  CA  GLY A   5      43.119 -50.049  -0.975  0.00  0.00    +0.176 C 
BRANCH  10  13
ATOM     11  C   SER A   4      41.083 -48.888  -0.287  0.00  0.00    +0.243 C 
ATOM     12  O   SER A   4      41.230 -49.220   0.887  0.00  0.00    -0.273 OA
ATOM     13  N   GLY A   5      41.936 -49.242  -1.246  0.00  0.00    -0.295 N 
ATOM     14  H   GLY A   5      41.752 -48.932  -2.222  0.00  0.00    +0.150 HD
BRANCH  11  15
ATOM     15  CA  SER A   4      39.890 -48.017  -0.709  0.00  0.00    +0.178 C 
BRANCH  15  18
ATOM     16  C   THR A   3      40.806 -46.473  -2.330  0.00  0.00    +0.243 C 
ATOM     17  O   THR A   3      41.575 -46.008  -1.495  0.00  0.00    -0.273 OA
ATOM     18  N   SER A   4      40.005 -47.501  -2.068  0.00  0.00    -0.295 N 
ATOM     19  H   SER A   4      39.458 -47.939  -2.836  0.00  0.00    +0.150 HD
BRANCH  16  20
ATOM     20  CA  THR A   3      40.730 -45.858  -3.725  0.00  0.00    +0.176 C 
BRANCH  20  23
ATOM     21  C   TYR A   2      41.228 -43.597  -3.004  0.00  0.00    +0.241 C 
ATOM     22  O   TYR A   2      40.220 -43.549  -2.281  0.00  0.00    -0.273 OA
ATOM     23  N   THR A   3      41.537 -44.647  -3.747  0.00  0.00    -0.295 N 
ATOM     24  H   THR A   3      42.376 -44.606  -4.361  0.00  0.00    +0.150 HD
BRANCH  21  25
ATOM     25  CA  TYR A   2      42.160 -42.401  -3.149  0.00  0.00    +0.153 C 
BRANCH  25  27
ATOM     26  C   LEU A   1      40.763 -40.754  -4.221  0.00  0.00    +0.238 C 
ATOM     27  N   TYR A   2      41.368 -41.194  -3.129  0.00  0.00    -0.297 N 
ATOM     28  H   TYR A   2      41.271 -40.661  -2.241  0.00  0.00    +0.150 HD
ATOM     29  O   LEU A   1      40.899 -41.278  -5.324  0.00  0.00    -0.274 OA
BRANCH  26  30
ATOM     30  CA  LEU A   1      39.902 -39.527  -4.043  0.00  0.00    +0.145 C 
BRANCH  30  31
ATOM     31  N   LEU A   1      40.252 -38.548  -5.062  0.00  0.00    -0.238 NA
ATOM     32  H   LEU A   1      40.042 -38.752  -6.060  0.00  0.00    +0.142 HD
ENDBRANCH  30  31
BRANCH  30  33
ATOM     33  CB  LEU A   1      38.417 -39.917  -4.106  0.00  0.00    +0.026 C 
BRANCH  33  34
ATOM     34  CG  LEU A   1      37.490 -39.154  -3.162  0.00  0.00    +0.002 C 
ATOM     35  CD2 LEU A   1      36.091 -39.782  -3.116  0.00  0.00    +0.000 C 
ATOM     36  CD1 LEU A   1      37.405 -37.703  -3.589  0.00  0.00    +0.000 C 
ENDBRANCH  33  34
ENDBRANCH  30  33
ENDBRANCH  26  30
ENDBRANCH  25  27
BRANCH  25  37
ATOM     37  CB  TYR A   2      43.244 -42.349  -2.066  0.00  0.00    +0.055 C 
BRANCH  37  38
ATOM     38  CG  TYR A   2      44.369 -41.419  -2.466  0.00  0.00    -0.020 A 
ATOM     39  CD2 TYR A   2      44.249 -40.044  -2.301  0.00  0.00    -0.001 A 
ATOM     40  CE2 TYR A   2      45.256 -39.185  -2.693  0.00  0.00    +0.036 A 
ATOM     41  CZ  TYR A   2      46.399 -39.685  -3.262  0.00  0.00    +0.134 A 
ATOM     42  CE1 TYR A   2      46.550 -41.053  -3.446  0.00  0.00    +0.036 A 
ATOM     43  CD1 TYR A   2      45.527 -41.909  -3.051  0.00  0.00    -0.001 A 
BRANCH  41  44
ATOM     44  OH  TYR A   2      47.397 -38.813  -3.641  0.00  0.00    -0.506 OA
ATOM     45  HH  TYR A   2      48.149 -39.324  -4.032  0.00  0.00    +0.292 HD
ENDBRANCH  41  44
ENDBRANCH  37  38
ENDBRANCH  25  37
ENDBRANCH  21  25
ENDBRANCH  20  23
BRANCH  20  46
ATOM     46  CB  THR A   3      41.216 -46.839  -4.791  0.00  0.00    +0.137 C 
ATOM     47  CG2 THR A   3      40.857 -46.308  -6.168  0.00  0.00    +0.034 C 
BRANCH  46  48
ATOM     48  OG1 THR A   3      42.643 -46.948  -4.705  0.00  0.00    -0.382 OA
ATOM     49  HG1 THR A   3      42.894 -47.278  -3.806  0.00  0.00    +0.210 HD
ENDBRANCH  46  48
ENDBRANCH  20  46
ENDBRANCH  16  20
ENDBRANCH  15  18
BRANCH  15  50
ATOM     50  CB  SER A   4      38.560 -48.757  -0.526  0.00  0.00    +0.166 C 
BRANCH  50  51
ATOM     51  OG  SER A   4      37.456 -47.869  -0.676  0.00  0.00    -0.380 OA
ATOM     52  H   SER A   4      37.517 -47.151   0.003  0.00  0.00    +0.211 HD
ENDBRANCH  50  51
ENDBRANCH  15  50
ENDBRANCH  11  15
ENDBRANCH  10  13
ENDBRANCH   6  10
ENDBRANCH   5   8
BRANCH   5  53
ATOM     53  CB  THR A   6      39.950 -53.699  -1.932  0.00  0.00    +0.137 C 
ATOM     54  CG2 THR A   6      39.706 -55.213  -2.032  0.00  0.00    +0.034 C 
BRANCH  53  55
ATOM     55  OG1 THR A   6      38.953 -53.109  -1.082  0.00  0.00    -0.382 OA
ATOM     56  HG1 THR A   6      38.054 -53.296  -1.451  0.00  0.00    +0.210 HD
ENDBRANCH  53  55
ENDBRANCH   5  53
ENDBRANCH   1   5
BRANCH   3  57
ATOM     57  CA  THR A   7      43.725 -54.709  -4.101  0.00  0.00    +0.176 C 
BRANCH  57  58
ATOM     58  C   THR A   7      45.188 -54.271  -4.085  0.00  0.00    +0.243 C 
ATOM     59  N   GLY A   8      45.520 -53.331  -3.207  0.00  0.00    -0.295 N 
ATOM     60  H   GLY A   8      44.794 -52.965  -2.559  0.00  0.00    +0.150 HD
ATOM     61  O   THR A   7      45.998 -54.774  -4.865  0.00  0.00    -0.273 OA
BRANCH  59  62
ATOM     62  CA  GLY A   8      46.871 -52.800  -3.127  0.00  0.00    +0.176 C 
BRANCH  62  63
ATOM     63  C   GLY A   8      46.875 -51.416  -2.507  0.00  0.00    +0.243 C 
ATOM     64  O   GLY A   8      45.872 -50.993  -1.931  0.00  0.00    -0.273 OA
ATOM     65  N   ARG A   9      47.997 -50.710  -2.620  0.00  0.00    -0.297 N 
ATOM     66  H   ARG A   9      48.827 -51.139  -3.077  0.00  0.00    +0.150 HD
BRANCH  65  67
ATOM     67  CA  ARG A   9      48.084 -49.345  -2.114  0.00  0.00    +0.149 C 
BRANCH  67  68
ATOM     68  C   ARG A   9      47.037 -48.490  -2.827  0.00  0.00    +0.241 C 
ATOM     69  N   SER A  10      46.343 -47.639  -2.080  0.00  0.00    -0.295 N 
ATOM     70  H   SER A  10      46.514 -47.589  -1.055  0.00  0.00    +0.150 HD
ATOM     71  O   ARG A   9      46.852 -48.607  -4.041  0.00  0.00    -0.273 OA
BRANCH  69  72
ATOM     72  CA  SER A  10      45.340 -46.773  -2.695  0.00  0.00    +0.178 C 
BRANCH  72  73
ATOM     73  C   SER A  10      45.974 -45.877  -3.762  0.00  0.00    +0.243 C 
ATOM     74  O   SER A  10      47.096 -45.395  -3.589  0.00  0.00    -0.273 OA
ATOM     75  N   UNK A  11      45.263 -45.684  -4.872  0.00  0.00    -0.298 N 
ATOM     76  H   UNK A  11      44.369 -46.202  -4.991  0.00  0.00    +0.150 HD
BRANCH  75  77
ATOM     77  C   UNK A  11      45.695 -44.767  -5.934  0.00  0.00    +0.137 C 
BRANCH  77  78
ATOM     78  C   UNK A  11      44.787 -43.531  -5.979  0.00  0.00    +0.227 C 
ATOM     79  O   UNK A  11      43.605 -43.624  -5.653  0.00  0.00    -0.286 OA
ENDBRANCH  77  78
BRANCH  77  80
ATOM     80  C   UNK A  11      45.659 -45.476  -7.292  0.00  0.00    +0.028 C 
BRANCH  80  81
ATOM     81  C   UNK A  11      46.527 -46.724  -7.371  0.00  0.00    +0.000 C 
BRANCH  81  82
ATOM     82  C   UNK A  11      46.090 -47.641  -8.506  0.00  0.00    -0.023 C 
BRANCH  82  83
ATOM     83  C   UNK A  11      44.672 -48.149  -8.284  0.00  0.00    -0.078 C 
BRANCH  83  84
ATOM     84  N   UNK A  11      44.394 -49.413  -9.016  0.00  0.00    +0.384 N 
ATOM     85  C   UNK A  11      44.901 -50.506  -8.178  0.00  0.00    -0.101 C 
ATOM     86  C   UNK A  11      45.226 -49.394 -10.227  0.00  0.00    -0.101 C 
ATOM     87  H   UNK A  11      43.383 -49.522  -9.236  0.00  0.00    -0.080 HD
ENDBRANCH  83  84
ENDBRANCH  82  83
ENDBRANCH  81  82
ENDBRANCH  80  81
ENDBRANCH  77  80
ENDBRANCH  75  77
ENDBRANCH  72  73
BRANCH  72  88
ATOM     88  CB  SER A  10      44.639 -45.935  -1.633  0.00  0.00    +0.166 C 
BRANCH  88  89
ATOM     89  OG  SER A  10      44.033 -46.769  -0.659  0.00  0.00    -0.380 OA
ATOM     90  H   SER A  10      44.727 -47.324  -0.224  0.00  0.00    +0.211 HD
ENDBRANCH  88  89
ENDBRANCH  72  88
ENDBRANCH  69  72
ENDBRANCH  67  68
BRANCH  67  91
ATOM     91  CB  ARG A   9      49.485 -48.764  -2.341  0.00  0.00    +0.033 C 
BRANCH  91  92
ATOM     92  CG  ARG A   9      49.797 -47.518  -1.509  0.00  0.00    +0.045 C 
BRANCH  92  93
ATOM     93  CD  ARG A   9      50.306 -47.893  -0.118  0.00  0.00    +0.174 C 
BRANCH  93  94
ATOM     94  NE  ARG A   9      50.395 -46.746   0.785  0.00  0.00    -0.265 N 
ATOM     95  CZ  ARG A   9      49.596 -46.550   1.832  0.00  0.00    +0.342 C 
ATOM     96  NH2 ARG A   9      49.752 -45.479   2.598  0.00  0.00    -0.292 N 
ATOM     97 HH21 ARG A   9      49.126 -45.329   3.415  0.00  0.00    +0.255 HD
ATOM     98 HH22 ARG A   9      50.500 -44.789   2.382  0.00  0.00    +0.255 HD
ATOM     99  NH1 ARG A   9      48.643 -47.428   2.119  0.00  0.00    -0.292 N 
ATOM    100 HH11 ARG A   9      48.021 -47.271   2.938  0.00  0.00    +0.255 HD
ATOM    101 HH12 ARG A   9      48.518 -48.273   1.525  0.00  0.00    +0.255 HD
ATOM    102  HE  ARG A   9      51.131 -46.036   0.597  0.00  0.00    +0.259 HD
ENDBRANCH  93  94
ENDBRANCH  92  93
ENDBRANCH  91  92
ENDBRANCH  67  91
ENDBRANCH  65  67
ENDBRANCH  62  63
ENDBRANCH  59  62
ENDBRANCH  57  58
BRANCH  57 103
ATOM    103  CB  THR A   7      43.266 -54.734  -5.573  0.00  0.00    +0.137 C 
ATOM    104  CG2 THR A   7      41.766 -54.961  -5.663  0.00  0.00    +0.034 C 
BRANCH 103 105
ATOM    105  OG1 THR A   7      43.604 -53.490  -6.202  0.00  0.00    -0.382 OA
ATOM    106  HG1 THR A   7      43.152 -52.748  -5.728  0.00  0.00    +0.210 HD
ENDBRANCH 103 105
ENDBRANCH  57 103
ENDBRANCH   3  57
TORSDOF 46
REMARK  Name = ../refined-set-2016/4fut/4fut_pocket.pdb
REMARK  234 active torsions:
REMARK  status: ('A' for Active; 'I' for Inactive)
REMARK    1  A    between atoms: _1  and  _3
REMARK    2  A    between atoms: _3  and  _4
REMARK    3  A    between atoms: _3  and  _6
REMARK    4  A    between atoms: _6  and  _7
REMARK    5  A    between atoms: _12  and  _13
REMARK    6  A    between atoms: _15  and  _17
REMARK    7  A    between atoms: _17  and  _18
REMARK    8  A    between atoms: _17  and  _20
REMARK    9  A    between atoms: _20  and  _21
REMARK   10  A    between atoms: _24  and  _26
REMARK   11  A    between atoms: _26  and  _27
REMARK   12  A    between atoms: _26  and  _29
REMARK   13  A    between atoms: _29  and  _30
REMARK   14  A    between atoms: _35  and  _36
REMARK   15  A    between atoms: _38  and  _40
REMARK   16  A    between atoms: _40  and  _41
REMARK   17  A    between atoms: _40  and  _43
REMARK   18  A    between atoms: _43  and  _44
REMARK   19  A    between atoms: _47  and  _49
REMARK   20  A    between atoms: _49  and  _50
REMARK   21  A    between atoms: _49  and  _52
REMARK   22  A    between atoms: _52  and  _53
REMARK   23  A    between atoms: _55  and  _57
REMARK   24  A    between atoms: _57  and  _58
REMARK   25  A    between atoms: _60  and  _62
REMARK   26  A    between atoms: _62  and  _63
REMARK   27  A    between atoms: _62  and  _65
REMARK   28  A    between atoms: _65  and  _66
REMARK   29  A    between atoms: _69  and  _71
REMARK   30  A    between atoms: _71  and  _72
REMARK   31  A    between atoms: _71  and  _74
REMARK   32  A    between atoms: _74  and  _75
REMARK   33  A    between atoms: _78  and  _80
REMARK   34  A    between atoms: _80  and  _81
REMARK   35  A    between atoms: _83  and  _85
REMARK   36  A    between atoms: _85  and  _86
REMARK   37  A    between atoms: _85  and  _88
REMARK   38  A    between atoms: _88  and  _89
REMARK   39  A    between atoms: _89  and  _90
REMARK   40  A    between atoms: _90  and  _91
REMARK   41  A    between atoms: _100  and  _102
REMARK   42  A    between atoms: _102  and  _103
REMARK   43  A    between atoms: _102  and  _105
REMARK   44  A    between atoms: _105  and  _106
REMARK   45  A    between atoms: _108  and  _110
REMARK   46  A    between atoms: _110  and  _111
REMARK   47  A    between atoms: _110  and  _119
REMARK   48  A    between atoms: _111  and  _112
REMARK   49  A    between atoms: _112  and  _113
REMARK   50  A    between atoms: _113  and  _114
REMARK   51  A    between atoms: _114  and  _115
REMARK   52  A    between atoms: _121  and  _123
REMARK   53  A    between atoms: _123  and  _124
REMARK   54  A    between atoms: _123  and  _126
REMARK   55  A    between atoms: _126  and  _127
REMARK   56  A    between atoms: _132  and  _134
REMARK   57  A    between atoms: _134  and  _135
REMARK   58  A    between atoms: _134  and  _137
REMARK   59  A    between atoms: _137  and  _138
REMARK   60  A    between atoms: _141  and  _143
REMARK   61  A    between atoms: _143  and  _144
REMARK   62  A    between atoms: _143  and  _146
REMARK   63  A    between atoms: _146  and  _147
REMARK   64  A    between atoms: _153  and  _154
REMARK   65  A    between atoms: _159  and  _161
REMARK   66  A    between atoms: _161  and  _162
REMARK   67  A    between atoms: _161  and  _164
REMARK   68  A    between atoms: _164  and  _165
REMARK   69  A    between atoms: _167  and  _169
REMARK   70  A    between atoms: _169  and  _170
REMARK   71  A    between atoms: _172  and  _174
REMARK   72  A    between atoms: _174  and  _175
REMARK   73  A    between atoms: _174  and  _177
REMARK   74  A    between atoms: _177  and  _178
REMARK   75  A    between atoms: _180  and  _182
REMARK   76  A    between atoms: _182  and  _183
REMARK   77  A    between atoms: _187  and  _188
REMARK   78  A    between atoms: _193  and  _195
REMARK   79  A    between atoms: _195  and  _196
REMARK   80  A    between atoms: _195  and  _198
REMARK   81  A    between atoms: _198  and  _199
REMARK   82  A    between atoms: _202  and  _204
REMARK   83  A    between atoms: _204  and  _205
REMARK   84  A    between atoms: _204  and  _207
REMARK   85  A    between atoms: _207  and  _208
REMARK   86  A    between atoms: _211  and  _213
REMARK   87  A    between atoms: _213  and  _214
REMARK   88  A    between atoms: _213  and  _216
REMARK   89  A    between atoms: _216  and  _217
REMARK   90  A    between atoms: _217  and  _218
REMARK   91  A    between atoms: _221  and  _223
REMARK   92  A    between atoms: _223  and  _224
REMARK   93  A    between atoms: _223  and  _226
REMARK   94  A    between atoms: _226  and  _227
REMARK   95  A    between atoms: _227  and  _228
REMARK   96  A    between atoms: _228  and  _229
REMARK   97  A    between atoms: _238  and  _240
REMARK   98  A    between atoms: _240  and  _241
REMARK   99  A    between atoms: _240  and  _243
REMARK  100  A    between atoms: _243  and  _244
REMARK  101  A    between atoms: _249  and  _250
REMARK  102  A    between atoms: _252  and  _254
REMARK  103  A    between atoms: _254  and  _255
REMARK  104  A    between atoms: _257  and  _259
REMARK  105  A    between atoms: _259  and  _260
REMARK  106  A    between atoms: _259  and  _262
REMARK  107  A    between atoms: _262  and  _263
REMARK  108  A    between atoms: _263  and  _264
REMARK  109  A    between atoms: _266  and  _268
REMARK  110  A    between atoms: _268  and  _269
REMARK  111  A    between atoms: _268  and  _271
REMARK  112  A    between atoms: _271  and  _272
REMARK  113  A    between atoms: _275  and  _277
REMARK  114  A    between atoms: _277  and  _278
REMARK  115  A    between atoms: _277  and  _280
REMARK  116  A    between atoms: _280  and  _281
REMARK  117  A    between atoms: _281  and  _282
REMARK  118  A    between atoms: _285  and  _287
REMARK  119  A    between atoms: _287  and  _288
REMARK  120  A    between atoms: _287  and  _290
REMARK  121  A    between atoms: _290  and  _291
REMARK  122  A    between atoms: _294  and  _296
REMARK  123  A    between atoms: _296  and  _297
REMARK  124  A    between atoms: _296  and  _299
REMARK  125  A    between atoms: _299  and  _300
REMARK  126  A    between atoms: _305  and  _307
REMARK  127  A    between atoms: _307  and  _308
REMARK  128  A    between atoms: _307  and  _310
REMARK  129  A    between atoms: _310  and  _311
REMARK  130  A    between atoms: _311  and  _312
REMARK  131  A    between atoms: _314  and  _316
REMARK  132  A    between atoms: _316  and  _317
REMARK  133  A    between atoms: _316  and  _319
REMARK  134  A    between atoms: _319  and  _320
REMARK  135  A    between atoms: _325  and  _327
REMARK  136  A    between atoms: _327  and  _328
REMARK  137  A    between atoms: _327  and  _330
REMARK  138  A    between atoms: _330  and  _331
REMARK  139  A    between atoms: _334  and  _336
REMARK  140  A    between atoms: _336  and  _337
REMARK  141  A    between atoms: _336  and  _339
REMARK  142  A    between atoms: _339  and  _340
REMARK  143  A    between atoms: _345  and  _347
REMARK  144  A    between atoms: _347  and  _348
REMARK  145  A    between atoms: _350  and  _352
REMARK  146  A    between atoms: _352  and  _353
REMARK  147  A    between atoms: _356  and  _358
REMARK  148  A    between atoms: _358  and  _359
REMARK  149  A    between atoms: _358  and  _361
REMARK  150  A    between atoms: _364  and  _366
REMARK  151  A    between atoms: _366  and  _367
REMARK  152  A    between atoms: _369  and  _371
REMARK  153  A    between atoms: _371  and  _372
REMARK  154  A    between atoms: _371  and  _374
REMARK  155  A    between atoms: _374  and  _375
REMARK  156  A    between atoms: _380  and  _381
REMARK  157  A    between atoms: _383  and  _385
REMARK  158  A    between atoms: _385  and  _386
REMARK  159  A    between atoms: _385  and  _388
REMARK  160  A    between atoms: _388  and  _389
REMARK  161  A    between atoms: _395  and  _397
REMARK  162  A    between atoms: _397  and  _398
REMARK  163  A    between atoms: _397  and  _400
REMARK  164  A    between atoms: _400  and  _401
REMARK  165  A    between atoms: _404  and  _406
REMARK  166  A    between atoms: _406  and  _407
REMARK  167  A    between atoms: _406  and  _409
REMARK  168  A    between atoms: _409  and  _410
REMARK  169  A    between atoms: _413  and  _415
REMARK  170  A    between atoms: _415  and  _416
REMARK  171  A    between atoms: _418  and  _420
REMARK  172  A    between atoms: _420  and  _421
REMARK  173  A    between atoms: _420  and  _423
REMARK  174  A    between atoms: _423  and  _424
REMARK  175  A    between atoms: _427  and  _429
REMARK  176  A    between atoms: _429  and  _430
REMARK  177  A    between atoms: _429  and  _432
REMARK  178  A    between atoms: _432  and  _433
REMARK  179  A    between atoms: _436  and  _438
REMARK  180  A    between atoms: _438  and  _439
REMARK  181  A    between atoms: _438  and  _441
REMARK  182  A    between atoms: _441  and  _442
REMARK  183  A    between atoms: _447  and  _449
REMARK  184  A    between atoms: _449  and  _450
REMARK  185  A    between atoms: _449  and  _452
REMARK  186  A    between atoms: _452  and  _453
REMARK  187  A    between atoms: _456  and  _458
REMARK  188  A    between atoms: _458  and  _459
REMARK  189  A    between atoms: _458  and  _461
REMARK  190  A    between atoms: _461  and  _462
REMARK  191  A    between atoms: _465  and  _467
REMARK  192  A    between atoms: _467  and  _468
REMARK  193  A    between atoms: _470  and  _472
REMARK  194  A    between atoms: _472  and  _473
REMARK  195  A    between atoms: _472  and  _475
REMARK  196  A    between atoms: _475  and  _476
REMARK  197  A    between atoms: _476  and  _477
REMARK  198  A    between atoms: _477  and  _478
REMARK  199  A    between atoms: _487  and  _489
REMARK  200  A    between atoms: _489  and  _490
REMARK  201  A    between atoms: _492  and  _494
REMARK  202  A    between atoms: _494  and  _495
REMARK  203  A    between atoms: _494  and  _497
REMARK  204  A    between atoms: _497  and  _498
REMARK  205  A    between atoms: _501  and  _503
REMARK  206  A    between atoms: _503  and  _504
REMARK  207  A    between atoms: _503  and  _512
REMARK  208  A    between atoms: _504  and  _505
REMARK  209  A    between atoms: _505  and  _506
REMARK  210  A    between atoms: _506  and  _507
REMARK  211  A    between atoms: _507  and  _508
REMARK  212  A    between atoms: _514  and  _516
REMARK  213  A    between atoms: _516  and  _517
REMARK  214  A    between atoms: _516  and  _519
REMARK  215  A    between atoms: _519  and  _520
REMARK  216  A    between atoms: _525  and  _527
REMARK  217  A    between atoms: _527  and  _528
REMARK  218  A    between atoms: _527  and  _530
REMARK  219  A    between atoms: _530  and  _531
REMARK  220  A    between atoms: _531  and  _532
REMARK  221  A    between atoms: _534  and  _536
REMARK  222  A    between atoms: _536  and  _537
REMARK  223  A    between atoms: _540  and  _542
REMARK  224  A    between atoms: _542  and  _543
REMARK  225  A    between atoms: _542  and  _545
REMARK  226  A    between atoms: _548  and  _550
REMARK  227  A    between atoms: _550  and  _551
REMARK  228  A    between atoms: _550  and  _553
REMARK  229  A    between atoms: _553  and  _554
REMARK  230  A    between atoms: _554  and  _555
REMARK  231  A    between atoms: _560  and  _562
REMARK  232  A    between atoms: _562  and  _563
REMARK  233  A    between atoms: _562  and  _565
REMARK  234  A    between atoms: _565  and  _566
REMARK                            x       y       z     vdW  Elec       q    Type
REMARK                         _______ _______ _______ _____ _____    ______ ____
ROOT
ATOM      1  CA  THR A   2      32.621 -41.496  -2.945  0.00  0.00    +0.176 C 
ENDROOT
BRANCH   1   4
ATOM      2  C   HIS A   1      33.360 -41.578  -0.621  0.00  0.00    +0.239 C 
ATOM      3  O   HIS A   1      32.483 -40.784  -0.251  0.00  0.00    -0.274 OA
ATOM      4  N   THR A   2      33.472 -42.004  -1.875  0.00  0.00    -0.295 N 
ATOM      5  H   THR A   2      34.189 -42.722  -2.100  0.00  0.00    +0.150 HD
BRANCH   2   6
ATOM      6  CA  HIS A   1      34.392 -42.123   0.375  0.00  0.00    +0.151 C 
BRANCH   6   7
ATOM      7  N   HIS A   1      34.620 -41.135   1.437  0.00  0.00    -0.238 NA
ATOM      8  H   HIS A   1      33.838 -40.898   2.081  0.00  0.00    +0.142 HD
ENDBRANCH   6   7
BRANCH   6   9
ATOM      9  CB  HIS A   1      33.903 -43.443   0.986  0.00  0.00    +0.074 C 
BRANCH   9  10
ATOM     10  CG  HIS A   1      33.699 -44.540  -0.012  0.00  0.00    +0.082 A 
ATOM     11  CD2 HIS A   1      34.528 -45.524  -0.441  0.00  0.00    +0.115 A 
ATOM     12  NE2 HIS A   1      33.833 -46.265  -1.368  0.00  0.00    -0.221 NA
ATOM     13  CE1 HIS A   1      32.620 -45.753  -1.503  0.00  0.00    +0.199 A 
ATOM     14  ND1 HIS A   1      32.513 -44.715  -0.691  0.00  0.00    -0.227 NA
ENDBRANCH   9  10
ENDBRANCH   6   9
ENDBRANCH   2   6
ENDBRANCH   1   4
BRANCH   1  15
ATOM     15  C   THR A   2      31.131 -41.611  -2.604  0.00  0.00    +0.243 C 
ATOM     16  N   HIS A   3      30.742 -42.666  -1.896  0.00  0.00    -0.298 N 
ATOM     17  H   HIS A   3      31.450 -43.332  -1.527  0.00  0.00    +0.150 HD
ATOM     18  O   THR A   2      30.347 -40.742  -2.953  0.00  0.00    -0.273 OA
BRANCH  16  19
ATOM     19  CA  HIS A   3      29.322 -42.894  -1.633  0.00  0.00    +0.143 C 
BRANCH  19  20
ATOM     20  C   HIS A   3      28.753 -41.774  -0.742  0.00  0.00    +0.227 C 
ATOM     21  O   HIS A   3      27.831 -41.057  -1.129  0.00  0.00    -0.286 OA
ENDBRANCH  19  20
BRANCH  19  22
ATOM     22  CB  HIS A   3      29.138 -44.274  -0.988  0.00  0.00    +0.075 C 
BRANCH  22  23
ATOM     23  CG  HIS A   3      27.710 -44.712  -0.873  0.00  0.00    +0.082 A 
ATOM     24  ND1 HIS A   3      27.357 -46.012  -0.573  0.00  0.00    -0.227 NA
ATOM     25  CE1 HIS A   3      26.039 -46.107  -0.522  0.00  0.00    +0.199 A 
ATOM     26  NE2 HIS A   3      25.524 -44.917  -0.780  0.00  0.00    -0.221 NA
ATOM     27  CD2 HIS A   3      26.546 -44.026  -1.005  0.00  0.00    +0.115 A 
ENDBRANCH  22  23
ENDBRANCH  19  22
ENDBRANCH  16  19
ENDBRANCH   1  15
BRANCH   1  28
ATOM     28  CB  THR A   2      32.921 -42.205  -4.291  0.00  0.00    +0.137 C 
ATOM     29  CG2 THR A   2      32.516 -43.677  -4.235  0.00  0.00    +0.034 C 
BRANCH  28  30
ATOM     30  OG1 THR A   2      32.216 -41.554  -5.362  0.00  0.00    -0.382 OA
ATOM     31  HG1 THR A   2      32.415 -42.015  -6.215  0.00  0.00    +0.210 HD
ENDBRANCH  28  30
ENDBRANCH   1  28
TORSDOF 12
REMARK  Name = ../refined-set-2016/4fut/4fut_pocket.pdb
REMARK  234 active torsions:
REMARK  status: ('A' for Active; 'I' for Inactive)
REMARK    1  A    between atoms: _1  and  _3
REMARK    2  A    between atoms: _3  and  _4
REMARK    3  A    between atoms: _3  and  _6
REMARK    4  A    between atoms: _6  and  _7
REMARK    5  A    between atoms: _12  and  _13
REMARK    6  A    between atoms: _15  and  _17
REMARK    7  A    between atoms: _17  and  _18
REMARK    8  A    between atoms: _17  and  _20
REMARK    9  A    between atoms: _20  and  _21
REMARK   10  A    between atoms: _24  and  _26
REMARK   11  A    between atoms: _26  and  _27
REMARK   12  A    between atoms: _26  and  _29
REMARK   13  A    between atoms: _29  and  _30
REMARK   14  A    between atoms: _35  and  _36
REMARK   15  A    between atoms: _38  and  _40
REMARK   16  A    between atoms: _40  and  _41
REMARK   17  A    between atoms: _40  and  _43
REMARK   18  A    between atoms: _43  and  _44
REMARK   19  A    between atoms: _47  and  _49
REMARK   20  A    between atoms: _49  and  _50
REMARK   21  A    between atoms: _49  and  _52
REMARK   22  A    between atoms: _52  and  _53
REMARK   23  A    between atoms: _55  and  _57
REMARK   24  A    between atoms: _57  and  _58
REMARK   25  A    between atoms: _60  and  _62
REMARK   26  A    between atoms: _62  and  _63
REMARK   27  A    between atoms: _62  and  _65
REMARK   28  A    between atoms: _65  and  _66
REMARK   29  A    between atoms: _69  and  _71
REMARK   30  A    between atoms: _71  and  _72
REMARK   31  A    between atoms: _71  and  _74
REMARK   32  A    between atoms: _74  and  _75
REMARK   33  A    between atoms: _78  and  _80
REMARK   34  A    between atoms: _80  and  _81
REMARK   35  A    between atoms: _83  and  _85
REMARK   36  A    between atoms: _85  and  _86
REMARK   37  A    between atoms: _85  and  _88
REMARK   38  A    between atoms: _88  and  _89
REMARK   39  A    between atoms: _89  and  _90
REMARK   40  A    between atoms: _90  and  _91
REMARK   41  A    between atoms: _100  and  _102
REMARK   42  A    between atoms: _102  and  _103
REMARK   43  A    between atoms: _102  and  _105
REMARK   44  A    between atoms: _105  and  _106
REMARK   45  A    between atoms: _108  and  _110
REMARK   46  A    between atoms: _110  and  _111
REMARK   47  A    between atoms: _110  and  _119
REMARK   48  A    between atoms: _111  and  _112
REMARK   49  A    between atoms: _112  and  _113
REMARK   50  A    between atoms: _113  and  _114
REMARK   51  A    between atoms: _114  and  _115
REMARK   52  A    between atoms: _121  and  _123
REMARK   53  A    between atoms: _123  and  _124
REMARK   54  A    between atoms: _123  and  _126
REMARK   55  A    between atoms: _126  and  _127
REMARK   56  A    between atoms: _132  and  _134
REMARK   57  A    between atoms: _134  and  _135
REMARK   58  A    between atoms: _134  and  _137
REMARK   59  A    between atoms: _137  and  _138
REMARK   60  A    between atoms: _141  and  _143
REMARK   61  A    between atoms: _143  and  _144
REMARK   62  A    between atoms: _143  and  _146
REMARK   63  A    between atoms: _146  and  _147
REMARK   64  A    between atoms: _153  and  _154
REMARK   65  A    between atoms: _159  and  _161
REMARK   66  A    between atoms: _161  and  _162
REMARK   67  A    between atoms: _161  and  _164
REMARK   68  A    between atoms: _164  and  _165
REMARK   69  A    between atoms: _167  and  _169
REMARK   70  A    between atoms: _169  and  _170
REMARK   71  A    between atoms: _172  and  _174
REMARK   72  A    between atoms: _174  and  _175
REMARK   73  A    between atoms: _174  and  _177
REMARK   74  A    between atoms: _177  and  _178
REMARK   75  A    between atoms: _180  and  _182
REMARK   76  A    between atoms: _182  and  _183
REMARK   77  A    between atoms: _187  and  _188
REMARK   78  A    between atoms: _193  and  _195
REMARK   79  A    between atoms: _195  and  _196
REMARK   80  A    between atoms: _195  and  _198
REMARK   81  A    between atoms: _198  and  _199
REMARK   82  A    between atoms: _202  and  _204
REMARK   83  A    between atoms: _204  and  _205
REMARK   84  A    between atoms: _204  and  _207
REMARK   85  A    between atoms: _207  and  _208
REMARK   86  A    between atoms: _211  and  _213
REMARK   87  A    between atoms: _213  and  _214
REMARK   88  A    between atoms: _213  and  _216
REMARK   89  A    between atoms: _216  and  _217
REMARK   90  A    between atoms: _217  and  _218
REMARK   91  A    between atoms: _221  and  _223
REMARK   92  A    between atoms: _223  and  _224
REMARK   93  A    between atoms: _223  and  _226
REMARK   94  A    between atoms: _226  and  _227
REMARK   95  A    between atoms: _227  and  _228
REMARK   96  A    between atoms: _228  and  _229
REMARK   97  A    between atoms: _238  and  _240
REMARK   98  A    between atoms: _240  and  _241
REMARK   99  A    between atoms: _240  and  _243
REMARK  100  A    between atoms: _243  and  _244
REMARK  101  A    between atoms: _249  and  _250
REMARK  102  A    between atoms: _252  and  _254
REMARK  103  A    between atoms: _254  and  _255
REMARK  104  A    between atoms: _257  and  _259
REMARK  105  A    between atoms: _259  and  _260
REMARK  106  A    between atoms: _259  and  _262
REMARK  107  A    between atoms: _262  and  _263
REMARK  108  A    between atoms: _263  and  _264
REMARK  109  A    between atoms: _266  and  _268
REMARK  110  A    between atoms: _268  and  _269
REMARK  111  A    between atoms: _268  and  _271
REMARK  112  A    between atoms: _271  and  _272
REMARK  113  A    between atoms: _275  and  _277
REMARK  114  A    between atoms: _277  and  _278
REMARK  115  A    between atoms: _277  and  _280
REMARK  116  A    between atoms: _280  and  _281
REMARK  117  A    between atoms: _281  and  _282
REMARK  118  A    between atoms: _285  and  _287
REMARK  119  A    between atoms: _287  and  _288
REMARK  120  A    between atoms: _287  and  _290
REMARK  121  A    between atoms: _290  and  _291
REMARK  122  A    between atoms: _294  and  _296
REMARK  123  A    between atoms: _296  and  _297
REMARK  124  A    between atoms: _296  and  _299
REMARK  125  A    between atoms: _299  and  _300
REMARK  126  A    between atoms: _305  and  _307
REMARK  127  A    between atoms: _307  and  _308
REMARK  128  A    between atoms: _307  and  _310
REMARK  129  A    between atoms: _310  and  _311
REMARK  130  A    between atoms: _311  and  _312
REMARK  131  A    between atoms: _314  and  _316
REMARK  132  A    between atoms: _316  and  _317
REMARK  133  A    between atoms: _316  and  _319
REMARK  134  A    between atoms: _319  and  _320
REMARK  135  A    between atoms: _325  and  _327
REMARK  136  A    between atoms: _327  and  _328
REMARK  137  A    between atoms: _327  and  _330
REMARK  138  A    between atoms: _330  and  _331
REMARK  139  A    between atoms: _334  and  _336
REMARK  140  A    between atoms: _336  and  _337
REMARK  141  A    between atoms: _336  and  _339
REMARK  142  A    between atoms: _339  and  _340
REMARK  143  A    between atoms: _345  and  _347
REMARK  144  A    between atoms: _347  and  _348
REMARK  145  A    between atoms: _350  and  _352
REMARK  146  A    between atoms: _352  and  _353
REMARK  147  A    between atoms: _356  and  _358
REMARK  148  A    between atoms: _358  and  _359
REMARK  149  A    between atoms: _358  and  _361
REMARK  150  A    between atoms: _364  and  _366
REMARK  151  A    between atoms: _366  and  _367
REMARK  152  A    between atoms: _369  and  _371
REMARK  153  A    between atoms: _371  and  _372
REMARK  154  A    between atoms: _371  and  _374
REMARK  155  A    between atoms: _374  and  _375
REMARK  156  A    between atoms: _380  and  _381
REMARK  157  A    between atoms: _383  and  _385
REMARK  158  A    between atoms: _385  and  _386
REMARK  159  A    between atoms: _385  and  _388
REMARK  160  A    between atoms: _388  and  _389
REMARK  161  A    between atoms: _395  and  _397
REMARK  162  A    between atoms: _397  and  _398
REMARK  163  A    between atoms: _397  and  _400
REMARK  164  A    between atoms: _400  and  _401
REMARK  165  A    between atoms: _404  and  _406
REMARK  166  A    between atoms: _406  and  _407
REMARK  167  A    between atoms: _406  and  _409
REMARK  168  A    between atoms: _409  and  _410
REMARK  169  A    between atoms: _413  and  _415
REMARK  170  A    between atoms: _415  and  _416
REMARK  171  A    between atoms: _418  and  _420
REMARK  172  A    between atoms: _420  and  _421
REMARK  173  A    between atoms: _420  and  _423
REMARK  174  A    between atoms: _423  and  _424
REMARK  175  A    between atoms: _427  and  _429
REMARK  176  A    between atoms: _429  and  _430
REMARK  177  A    between atoms: _429  and  _432
REMARK  178  A    between atoms: _432  and  _433
REMARK  179  A    between atoms: _436  and  _438
REMARK  180  A    between atoms: _438  and  _439
REMARK  181  A    between atoms: _438  and  _441
REMARK  182  A    between atoms: _441  and  _442
REMARK  183  A    between atoms: _447  and  _449
REMARK  184  A    between atoms: _449  and  _450
REMARK  185  A    between atoms: _449  and  _452
REMARK  186  A    between atoms: _452  and  _453
REMARK  187  A    between atoms: _456  and  _458
REMARK  188  A    between atoms: _458  and  _459
REMARK  189  A    between atoms: _458  and  _461
REMARK  190  A    between atoms: _461  and  _462
REMARK  191  A    between atoms: _465  and  _467
REMARK  192  A    between atoms: _467  and  _468
REMARK  193  A    between atoms: _470  and  _472
REMARK  194  A    between atoms: _472  and  _473
REMARK  195  A    between atoms: _472  and  _475
REMARK  196  A    between atoms: _475  and  _476
REMARK  197  A    between atoms: _476  and  _477
REMARK  198  A    between atoms: _477  and  _478
REMARK  199  A    between atoms: _487  and  _489
REMARK  200  A    between atoms: _489  and  _490
REMARK  201  A    between atoms: _492  and  _494
REMARK  202  A    between atoms: _494  and  _495
REMARK  203  A    between atoms: _494  and  _497
REMARK  204  A    between atoms: _497  and  _498
REMARK  205  A    between atoms: _501  and  _503
REMARK  206  A    between atoms: _503  and  _504
REMARK  207  A    between atoms: _503  and  _512
REMARK  208  A    between atoms: _504  and  _505
REMARK  209  A    between atoms: _505  and  _506
REMARK  210  A    between atoms: _506  and  _507
REMARK  211  A    between atoms: _507  and  _508
REMARK  212  A    between atoms: _514  and  _516
REMARK  213  A    between atoms: _516  and  _517
REMARK  214  A    between atoms: _516  and  _519
REMARK  215  A    between atoms: _519  and  _520
REMARK  216  A    between atoms: _525  and  _527
REMARK  217  A    between atoms: _527  and  _528
REMARK  218  A    between atoms: _527  and  _530
REMARK  219  A    between atoms: _530  and  _531
REMARK  220  A    between atoms: _531  and  _532
REMARK  221  A    between atoms: _534  and  _536
REMARK  222  A    between atoms: _536  and  _537
REMARK  223  A    between atoms: _540  and  _542
REMARK  224  A    between atoms: _542  and  _543
REMARK  225  A    between atoms: _542  and  _545
REMARK  226  A    between atoms: _548  and  _550
REMARK  227  A    between atoms: _550  and  _551
REMARK  228  A    between atoms: _550  and  _553
REMARK  229  A    between atoms: _553  and  _554
REMARK  230  A    between atoms: _554  and  _555
REMARK  231  A    between atoms: _560  and  _562
REMARK  232  A    between atoms: _562  and  _563
REMARK  233  A    between atoms: _562  and  _565
REMARK  234  A    between atoms: _565  and  _566
REMARK                            x       y       z     vdW  Elec       q    Type
REMARK                         _______ _______ _______ _____ _____    ______ ____
ROOT
ATOM      1  N   PRO A   1      25.676 -52.940   2.145  0.00  0.00    -0.212 NA
ATOM      2  CA  PRO A   1      25.001 -54.168   2.567  0.00  0.00    +0.137 C 
ATOM      3  CB  PRO A   1      25.747 -55.251   1.784  0.00  0.00    +0.027 C 
ATOM      4  CG  PRO A   1      26.035 -54.557   0.471  0.00  0.00    +0.021 C 
ATOM      5  CD  PRO A   1      26.454 -53.148   0.909  0.00  0.00    +0.089 C 
ENDROOT
BRANCH   2   6
ATOM      6  C   PRO A   1      25.024 -54.419   4.077  0.00  0.00    +0.224 C 
ATOM      7  O   PRO A   1      24.018 -54.895   4.604  0.00  0.00    -0.287 OA
ENDBRANCH   2   6
TORSDOF 1
REMARK  Name = ../refined-set-2016/4fut/4fut_pocket.pdb
REMARK  234 active torsions:
REMARK  status: ('A' for Active; 'I' for Inactive)
REMARK    1  A    between atoms: _1  and  _3
REMARK    2  A    between atoms: _3  and  _4
REMARK    3  A    between atoms: _3  and  _6
REMARK    4  A    between atoms: _6  and  _7
REMARK    5  A    between atoms: _12  and  _13
REMARK    6  A    between atoms: _15  and  _17
REMARK    7  A    between atoms: _17  and  _18
REMARK    8  A    between atoms: _17  and  _20
REMARK    9  A    between atoms: _20  and  _21
REMARK   10  A    between atoms: _24  and  _26
REMARK   11  A    between atoms: _26  and  _27
REMARK   12  A    between atoms: _26  and  _29
REMARK   13  A    between atoms: _29  and  _30
REMARK   14  A    between atoms: _35  and  _36
REMARK   15  A    between atoms: _38  and  _40
REMARK   16  A    between atoms: _40  and  _41
REMARK   17  A    between atoms: _40  and  _43
REMARK   18  A    between atoms: _43  and  _44
REMARK   19  A    between atoms: _47  and  _49
REMARK   20  A    between atoms: _49  and  _50
REMARK   21  A    between atoms: _49  and  _52
REMARK   22  A    between atoms: _52  and  _53
REMARK   23  A    between atoms: _55  and  _57
REMARK   24  A    between atoms: _57  and  _58
REMARK   25  A    between atoms: _60  and  _62
REMARK   26  A    between atoms: _62  and  _63
REMARK   27  A    between atoms: _62  and  _65
REMARK   28  A    between atoms: _65  and  _66
REMARK   29  A    between atoms: _69  and  _71
REMARK   30  A    between atoms: _71  and  _72
REMARK   31  A    between atoms: _71  and  _74
REMARK   32  A    between atoms: _74  and  _75
REMARK   33  A    between atoms: _78  and  _80
REMARK   34  A    between atoms: _80  and  _81
REMARK   35  A    between atoms: _83  and  _85
REMARK   36  A    between atoms: _85  and  _86
REMARK   37  A    between atoms: _85  and  _88
REMARK   38  A    between atoms: _88  and  _89
REMARK   39  A    between atoms: _89  and  _90
REMARK   40  A    between atoms: _90  and  _91
REMARK   41  A    between atoms: _100  and  _102
REMARK   42  A    between atoms: _102  and  _103
REMARK   43  A    between atoms: _102  and  _105
REMARK   44  A    between atoms: _105  and  _106
REMARK   45  A    between atoms: _108  and  _110
REMARK   46  A    between atoms: _110  and  _111
REMARK   47  A    between atoms: _110  and  _119
REMARK   48  A    between atoms: _111  and  _112
REMARK   49  A    between atoms: _112  and  _113
REMARK   50  A    between atoms: _113  and  _114
REMARK   51  A    between atoms: _114  and  _115
REMARK   52  A    between atoms: _121  and  _123
REMARK   53  A    between atoms: _123  and  _124
REMARK   54  A    between atoms: _123  and  _126
REMARK   55  A    between atoms: _126  and  _127
REMARK   56  A    between atoms: _132  and  _134
REMARK   57  A    between atoms: _134  and  _135
REMARK   58  A    between atoms: _134  and  _137
REMARK   59  A    between atoms: _137  and  _138
REMARK   60  A    between atoms: _141  and  _143
REMARK   61  A    between atoms: _143  and  _144
REMARK   62  A    between atoms: _143  and  _146
REMARK   63  A    between atoms: _146  and  _147
REMARK   64  A    between atoms: _153  and  _154
REMARK   65  A    between atoms: _159  and  _161
REMARK   66  A    between atoms: _161  and  _162
REMARK   67  A    between atoms: _161  and  _164
REMARK   68  A    between atoms: _164  and  _165
REMARK   69  A    between atoms: _167  and  _169
REMARK   70  A    between atoms: _169  and  _170
REMARK   71  A    between atoms: _172  and  _174
REMARK   72  A    between atoms: _174  and  _175
REMARK   73  A    between atoms: _174  and  _177
REMARK   74  A    between atoms: _177  and  _178
REMARK   75  A    between atoms: _180  and  _182
REMARK   76  A    between atoms: _182  and  _183
REMARK   77  A    between atoms: _187  and  _188
REMARK   78  A    between atoms: _193  and  _195
REMARK   79  A    between atoms: _195  and  _196
REMARK   80  A    between atoms: _195  and  _198
REMARK   81  A    between atoms: _198  and  _199
REMARK   82  A    between atoms: _202  and  _204
REMARK   83  A    between atoms: _204  and  _205
REMARK   84  A    between atoms: _204  and  _207
REMARK   85  A    between atoms: _207  and  _208
REMARK   86  A    between atoms: _211  and  _213
REMARK   87  A    between atoms: _213  and  _214
REMARK   88  A    between atoms: _213  and  _216
REMARK   89  A    between atoms: _216  and  _217
REMARK   90  A    between atoms: _217  and  _218
REMARK   91  A    between atoms: _221  and  _223
REMARK   92  A    between atoms: _223  and  _224
REMARK   93  A    between atoms: _223  and  _226
REMARK   94  A    between atoms: _226  and  _227
REMARK   95  A    between atoms: _227  and  _228
REMARK   96  A    between atoms: _228  and  _229
REMARK   97  A    between atoms: _238  and  _240
REMARK   98  A    between atoms: _240  and  _241
REMARK   99  A    between atoms: _240  and  _243
REMARK  100  A    between atoms: _243  and  _244
REMARK  101  A    between atoms: _249  and  _250
REMARK  102  A    between atoms: _252  and  _254
REMARK  103  A    between atoms: _254  and  _255
REMARK  104  A    between atoms: _257  and  _259
REMARK  105  A    between atoms: _259  and  _260
REMARK  106  A    between atoms: _259  and  _262
REMARK  107  A    between atoms: _262  and  _263
REMARK  108  A    between atoms: _263  and  _264
REMARK  109  A    between atoms: _266  and  _268
REMARK  110  A    between atoms: _268  and  _269
REMARK  111  A    between atoms: _268  and  _271
REMARK  112  A    between atoms: _271  and  _272
REMARK  113  A    between atoms: _275  and  _277
REMARK  114  A    between atoms: _277  and  _278
REMARK  115  A    between atoms: _277  and  _280
REMARK  116  A    between atoms: _280  and  _281
REMARK  117  A    between atoms: _281  and  _282
REMARK  118  A    between atoms: _285  and  _287
REMARK  119  A    between atoms: _287  and  _288
REMARK  120  A    between atoms: _287  and  _290
REMARK  121  A    between atoms: _290  and  _291
REMARK  122  A    between atoms: _294  and  _296
REMARK  123  A    between atoms: _296  and  _297
REMARK  124  A    between atoms: _296  and  _299
REMARK  125  A    between atoms: _299  and  _300
REMARK  126  A    between atoms: _305  and  _307
REMARK  127  A    between atoms: _307  and  _308
REMARK  128  A    between atoms: _307  and  _310
REMARK  129  A    between atoms: _310  and  _311
REMARK  130  A    between atoms: _311  and  _312
REMARK  131  A    between atoms: _314  and  _316
REMARK  132  A    between atoms: _316  and  _317
REMARK  133  A    between atoms: _316  and  _319
REMARK  134  A    between atoms: _319  and  _320
REMARK  135  A    between atoms: _325  and  _327
REMARK  136  A    between atoms: _327  and  _328
REMARK  137  A    between atoms: _327  and  _330
REMARK  138  A    between atoms: _330  and  _331
REMARK  139  A    between atoms: _334  and  _336
REMARK  140  A    between atoms: _336  and  _337
REMARK  141  A    between atoms: _336  and  _339
REMARK  142  A    between atoms: _339  and  _340
REMARK  143  A    between atoms: _345  and  _347
REMARK  144  A    between atoms: _347  and  _348
REMARK  145  A    between atoms: _350  and  _352
REMARK  146  A    between atoms: _352  and  _353
REMARK  147  A    between atoms: _356  and  _358
REMARK  148  A    between atoms: _358  and  _359
REMARK  149  A    between atoms: _358  and  _361
REMARK  150  A    between atoms: _364  and  _366
REMARK  151  A    between atoms: _366  and  _367
REMARK  152  A    between atoms: _369  and  _371
REMARK  153  A    between atoms: _371  and  _372
REMARK  154  A    between atoms: _371  and  _374
REMARK  155  A    between atoms: _374  and  _375
REMARK  156  A    between atoms: _380  and  _381
REMARK  157  A    between atoms: _383  and  _385
REMARK  158  A    between atoms: _385  and  _386
REMARK  159  A    between atoms: _385  and  _388
REMARK  160  A    between atoms: _388  and  _389
REMARK  161  A    between atoms: _395  and  _397
REMARK  162  A    between atoms: _397  and  _398
REMARK  163  A    between atoms: _397  and  _400
REMARK  164  A    between atoms: _400  and  _401
REMARK  165  A    between atoms: _404  and  _406
REMARK  166  A    between atoms: _406  and  _407
REMARK  167  A    between atoms: _406  and  _409
REMARK  168  A    between atoms: _409  and  _410
REMARK  169  A    between atoms: _413  and  _415
REMARK  170  A    between atoms: _415  and  _416
REMARK  171  A    between atoms: _418  and  _420
REMARK  172  A    between atoms: _420  and  _421
REMARK  173  A    between atoms: _420  and  _423
REMARK  174  A    between atoms: _423  and  _424
REMARK  175  A    between atoms: _427  and  _429
REMARK  176  A    between atoms: _429  and  _430
REMARK  177  A    between atoms: _429  and  _432
REMARK  178  A    between atoms: _432  and  _433
REMARK  179  A    between atoms: _436  and  _438
REMARK  180  A    between atoms: _438  and  _439
REMARK  181  A    between atoms: _438  and  _441
REMARK  182  A    between atoms: _441  and  _442
REMARK  183  A    between atoms: _447  and  _449
REMARK  184  A    between atoms: _449  and  _450
REMARK  185  A    between atoms: _449  and  _452
REMARK  186  A    between atoms: _452  and  _453
REMARK  187  A    between atoms: _456  and  _458
REMARK  188  A    between atoms: _458  and  _459
REMARK  189  A    between atoms: _458  and  _461
REMARK  190  A    between atoms: _461  and  _462
REMARK  191  A    between atoms: _465  and  _467
REMARK  192  A    between atoms: _467  and  _468
REMARK  193  A    between atoms: _470  and  _472
REMARK  194  A    between atoms: _472  and  _473
REMARK  195  A    between atoms: _472  and  _475
REMARK  196  A    between atoms: _475  and  _476
REMARK  197  A    between atoms: _476  and  _477
REMARK  198  A    between atoms: _477  and  _478
REMARK  199  A    between atoms: _487  and  _489
REMARK  200  A    between atoms: _489  and  _490
REMARK  201  A    between atoms: _492  and  _494
REMARK  202  A    between atoms: _494  and  _495
REMARK  203  A    between atoms: _494  and  _497
REMARK  204  A    between atoms: _497  and  _498
REMARK  205  A    between atoms: _501  and  _503
REMARK  206  A    between atoms: _503  and  _504
REMARK  207  A    between atoms: _503  and  _512
REMARK  208  A    between atoms: _504  and  _505
REMARK  209  A    between atoms: _505  and  _506
REMARK  210  A    between atoms: _506  and  _507
REMARK  211  A    between atoms: _507  and  _508
REMARK  212  A    between atoms: _514  and  _516
REMARK  213  A    between atoms: _516  and  _517
REMARK  214  A    between atoms: _516  and  _519
REMARK  215  A    between atoms: _519  and  _520
REMARK  216  A    between atoms: _525  and  _527
REMARK  217  A    between atoms: _527  and  _528
REMARK  218  A    between atoms: _527  and  _530
REMARK  219  A    between atoms: _530  and  _531
REMARK  220  A    between atoms: _531  and  _532
REMARK  221  A    between atoms: _534  and  _536
REMARK  222  A    between atoms: _536  and  _537
REMARK  223  A    between atoms: _540  and  _542
REMARK  224  A    between atoms: _542  and  _543
REMARK  225  A    between atoms: _542  and  _545
REMARK  226  A    between atoms: _548  and  _550
REMARK  227  A    between atoms: _550  and  _551
REMARK  228  A    between atoms: _550  and  _553
REMARK  229  A    between atoms: _553  and  _554
REMARK  230  A    between atoms: _554  and  _555
REMARK  231  A    between atoms: _560  and  _562
REMARK  232  A    between atoms: _562  and  _563
REMARK  233  A    between atoms: _562  and  _565
REMARK  234  A    between atoms: _565  and  _566
REMARK                            x       y       z     vdW  Elec       q    Type
REMARK                         _______ _______ _______ _____ _____    ______ ____
ROOT
ATOM      1  C   ALA A   4      28.567 -54.596  -2.417  0.00  0.00    +0.244 C 
ATOM      2  O   ALA A   4      27.484 -54.030  -2.534  0.00  0.00    -0.273 OA
ATOM      3  N   PRO A   5      28.735 -55.907  -2.683  0.00  0.00    -0.272 N 
ATOM      4  CD  PRO A   5      29.953 -56.718  -2.503  0.00  0.00    +0.094 C 
ATOM      5  CG  PRO A   5      29.694 -57.926  -3.362  0.00  0.00    +0.024 C 
ATOM      6  CB  PRO A   5      28.214 -58.096  -3.444  0.00  0.00    +0.031 C 
ATOM      7  CA  PRO A   5      27.605 -56.697  -3.189  0.00  0.00    +0.152 C 
ENDROOT
BRANCH   7   8
ATOM      8  C   PRO A   5      26.467 -56.831  -2.186  0.00  0.00    +0.241 C 
ATOM      9  O   PRO A   5      26.702 -57.269  -1.056  0.00  0.00    -0.273 OA
ATOM     10  N   LEU A   6      25.252 -56.464  -2.594  0.00  0.00    -0.297 N 
ATOM     11  H   LEU A   6      25.150 -55.921  -3.475  0.00  0.00    +0.150 HD
BRANCH  10  12
ATOM     12  CA  LEU A   6      24.062 -56.813  -1.822  0.00  0.00    +0.149 C 
BRANCH  12  13
ATOM     13  C   LEU A   6      23.673 -58.242  -2.184  0.00  0.00    +0.241 C 
ATOM     14  N   LEU A   7      23.809 -59.170  -1.239  0.00  0.00    -0.298 N 
ATOM     15  H   LEU A   7      24.149 -58.896  -0.295  0.00  0.00    +0.150 HD
ATOM     16  O   LEU A   6      23.257 -58.498  -3.318  0.00  0.00    -0.273 OA
BRANCH  14  17
ATOM     17  CA  LEU A   7      23.485 -60.574  -1.514  0.00  0.00    +0.137 C 
BRANCH  17  18
ATOM     18  C   LEU A   7      22.002 -60.718  -1.848  0.00  0.00    +0.227 C 
ATOM     19  O   LEU A   7      21.153 -60.030  -1.280  0.00  0.00    -0.286 OA
ENDBRANCH  17  18
BRANCH  17  20
ATOM     20  CB  LEU A   7      23.850 -61.470  -0.325  0.00  0.00    +0.028 C 
BRANCH  20  21
ATOM     21  CG  LEU A   7      25.314 -61.456   0.114  0.00  0.00    +0.002 C 
ATOM     22  CD2 LEU A   7      25.492 -62.362   1.317  0.00  0.00    +0.000 C 
ATOM     23  CD1 LEU A   7      26.226 -61.897  -1.020  0.00  0.00    +0.000 C 
ENDBRANCH  20  21
ENDBRANCH  17  20
ENDBRANCH  14  17
ENDBRANCH  12  13
BRANCH  12  24
ATOM     24  CB  LEU A   6      22.889 -55.882  -2.152  0.00  0.00    +0.029 C 
BRANCH  24  25
ATOM     25  CG  LEU A   6      21.649 -56.154  -1.290  0.00  0.00    +0.002 C 
ATOM     26  CD2 LEU A   6      21.956 -55.863   0.191  0.00  0.00    +0.000 C 
ATOM     27  CD1 LEU A   6      20.464 -55.329  -1.751  0.00  0.00    +0.000 C 
ENDBRANCH  24  25
ENDBRANCH  12  24
ENDBRANCH  10  12
ENDBRANCH   7   8
BRANCH   1  28
ATOM     28  CA  ALA A   4      29.775 -53.801  -1.944  0.00  0.00    +0.149 C 
ATOM     29  CB  ALA A   4      30.135 -54.171  -0.494  0.00  0.00    +0.031 C 
BRANCH  28  32
ATOM     30  C   SER A   3      30.277 -51.391  -2.119  0.00  0.00    +0.243 C 
ATOM     31  O   SER A   3      31.484 -51.552  -1.989  0.00  0.00    -0.273 OA
ATOM     32  N   ALA A   4      29.399 -52.385  -2.047  0.00  0.00    -0.297 N 
ATOM     33  H   ALA A   4      28.387 -52.147  -2.065  0.00  0.00    +0.150 HD
BRANCH  30  34
ATOM     34  CA  SER A   3      29.707 -49.983  -2.346  0.00  0.00    +0.178 C 
BRANCH  34  37
ATOM     35  C   GLY A   2      27.242 -50.012  -2.123  0.00  0.00    +0.243 C 
ATOM     36  O   GLY A   2      27.243 -50.337  -0.936  0.00  0.00    -0.273 OA
ATOM     37  N   SER A   3      28.342 -49.950  -2.879  0.00  0.00    -0.295 N 
ATOM     38  H   SER A   3      28.222 -49.874  -3.909  0.00  0.00    +0.150 HD
BRANCH  35  39
ATOM     39  CA  GLY A   2      25.932 -49.678  -2.822  0.00  0.00    +0.176 C 
BRANCH  39  41
ATOM     40  C   SER A   1      23.553 -49.968  -2.439  0.00  0.00    +0.241 C 
ATOM     41  N   GLY A   2      24.779 -49.810  -1.946  0.00  0.00    -0.295 N 
ATOM     42  H   GLY A   2      24.915 -49.780  -0.915  0.00  0.00    +0.150 HD
ATOM     43  O   SER A   1      23.309 -49.954  -3.646  0.00  0.00    -0.274 OA
BRANCH  40  44
ATOM     44  CA  SER A   1      22.429 -50.156  -1.427  0.00  0.00    +0.174 C 
BRANCH  44  45
ATOM     45  N   SER A   1      21.229 -49.458  -1.869  0.00  0.00    -0.236 NA
ATOM     46  H   SER A   1      20.815 -49.694  -2.793  0.00  0.00    +0.142 HD
ENDBRANCH  44  45
BRANCH  44  47
ATOM     47  CB  SER A   1      22.162 -51.656  -1.259  0.00  0.00    +0.163 C 
BRANCH  47  48
ATOM     48  OG  SER A   1      23.309 -52.276  -0.717  0.00  0.00    -0.380 OA
ATOM     49  H   SER A   1      24.076 -52.142  -1.329  0.00  0.00    +0.211 HD
ENDBRANCH  47  48
ENDBRANCH  44  47
ENDBRANCH  40  44
ENDBRANCH  39  41
ENDBRANCH  35  39
ENDBRANCH  34  37
BRANCH  34  50
ATOM     50  CB  SER A   3      29.821 -49.148  -1.063  0.00  0.00    +0.166 C 
BRANCH  50  51
ATOM     51  OG  SER A   3      29.348 -47.817  -1.288  0.00  0.00    -0.380 OA
ATOM     52  H   SER A   3      29.890 -47.391  -1.999  0.00  0.00    +0.211 HD
ENDBRANCH  50  51
ENDBRANCH  34  50
ENDBRANCH  30  34
ENDBRANCH  28  32
ENDBRANCH   1  28
TORSDOF 21
REMARK  Name = ../refined-set-2016/4fut/4fut_pocket.pdb
REMARK  234 active torsions:
REMARK  status: ('A' for Active; 'I' for Inactive)
REMARK    1  A    between atoms: _1  and  _3
REMARK    2  A    between atoms: _3  and  _4
REMARK    3  A    between atoms: _3  and  _6
REMARK    4  A    between atoms: _6  and  _7
REMARK    5  A    between atoms: _12  and  _13
REMARK    6  A    between atoms: _15  and  _17
REMARK    7  A    between atoms: _17  and  _18
REMARK    8  A    between atoms: _17  and  _20
REMARK    9  A    between atoms: _20  and  _21
REMARK   10  A    between atoms: _24  and  _26
REMARK   11  A    between atoms: _26  and  _27
REMARK   12  A    between atoms: _26  and  _29
REMARK   13  A    between atoms: _29  and  _30
REMARK   14  A    between atoms: _35  and  _36
REMARK   15  A    between atoms: _38  and  _40
REMARK   16  A    between atoms: _40  and  _41
REMARK   17  A    between atoms: _40  and  _43
REMARK   18  A    between atoms: _43  and  _44
REMARK   19  A    between atoms: _47  and  _49
REMARK   20  A    between atoms: _49  and  _50
REMARK   21  A    between atoms: _49  and  _52
REMARK   22  A    between atoms: _52  and  _53
REMARK   23  A    between atoms: _55  and  _57
REMARK   24  A    between atoms: _57  and  _58
REMARK   25  A    between atoms: _60  and  _62
REMARK   26  A    between atoms: _62  and  _63
REMARK   27  A    between atoms: _62  and  _65
REMARK   28  A    between atoms: _65  and  _66
REMARK   29  A    between atoms: _69  and  _71
REMARK   30  A    between atoms: _71  and  _72
REMARK   31  A    between atoms: _71  and  _74
REMARK   32  A    between atoms: _74  and  _75
REMARK   33  A    between atoms: _78  and  _80
REMARK   34  A    between atoms: _80  and  _81
REMARK   35  A    between atoms: _83  and  _85
REMARK   36  A    between atoms: _85  and  _86
REMARK   37  A    between atoms: _85  and  _88
REMARK   38  A    between atoms: _88  and  _89
REMARK   39  A    between atoms: _89  and  _90
REMARK   40  A    between atoms: _90  and  _91
REMARK   41  A    between atoms: _100  and  _102
REMARK   42  A    between atoms: _102  and  _103
REMARK   43  A    between atoms: _102  and  _105
REMARK   44  A    between atoms: _105  and  _106
REMARK   45  A    between atoms: _108  and  _110
REMARK   46  A    between atoms: _110  and  _111
REMARK   47  A    between atoms: _110  and  _119
REMARK   48  A    between atoms: _111  and  _112
REMARK   49  A    between atoms: _112  and  _113
REMARK   50  A    between atoms: _113  and  _114
REMARK   51  A    between atoms: _114  and  _115
REMARK   52  A    between atoms: _121  and  _123
REMARK   53  A    between atoms: _123  and  _124
REMARK   54  A    between atoms: _123  and  _126
REMARK   55  A    between atoms: _126  and  _127
REMARK   56  A    between atoms: _132  and  _134
REMARK   57  A    between atoms: _134  and  _135
REMARK   58  A    between atoms: _134  and  _137
REMARK   59  A    between atoms: _137  and  _138
REMARK   60  A    between atoms: _141  and  _143
REMARK   61  A    between atoms: _143  and  _144
REMARK   62  A    between atoms: _143  and  _146
REMARK   63  A    between atoms: _146  and  _147
REMARK   64  A    between atoms: _153  and  _154
REMARK   65  A    between atoms: _159  and  _161
REMARK   66  A    between atoms: _161  and  _162
REMARK   67  A    between atoms: _161  and  _164
REMARK   68  A    between atoms: _164  and  _165
REMARK   69  A    between atoms: _167  and  _169
REMARK   70  A    between atoms: _169  and  _170
REMARK   71  A    between atoms: _172  and  _174
REMARK   72  A    between atoms: _174  and  _175
REMARK   73  A    between atoms: _174  and  _177
REMARK   74  A    between atoms: _177  and  _178
REMARK   75  A    between atoms: _180  and  _182
REMARK   76  A    between atoms: _182  and  _183
REMARK   77  A    between atoms: _187  and  _188
REMARK   78  A    between atoms: _193  and  _195
REMARK   79  A    between atoms: _195  and  _196
REMARK   80  A    between atoms: _195  and  _198
REMARK   81  A    between atoms: _198  and  _199
REMARK   82  A    between atoms: _202  and  _204
REMARK   83  A    between atoms: _204  and  _205
REMARK   84  A    between atoms: _204  and  _207
REMARK   85  A    between atoms: _207  and  _208
REMARK   86  A    between atoms: _211  and  _213
REMARK   87  A    between atoms: _213  and  _214
REMARK   88  A    between atoms: _213  and  _216
REMARK   89  A    between atoms: _216  and  _217
REMARK   90  A    between atoms: _217  and  _218
REMARK   91  A    between atoms: _221  and  _223
REMARK   92  A    between atoms: _223  and  _224
REMARK   93  A    between atoms: _223  and  _226
REMARK   94  A    between atoms: _226  and  _227
REMARK   95  A    between atoms: _227  and  _228
REMARK   96  A    between atoms: _228  and  _229
REMARK   97  A    between atoms: _238  and  _240
REMARK   98  A    between atoms: _240  and  _241
REMARK   99  A    between atoms: _240  and  _243
REMARK  100  A    between atoms: _243  and  _244
REMARK  101  A    between atoms: _249  and  _250
REMARK  102  A    between atoms: _252  and  _254
REMARK  103  A    between atoms: _254  and  _255
REMARK  104  A    between atoms: _257  and  _259
REMARK  105  A    between atoms: _259  and  _260
REMARK  106  A    between atoms: _259  and  _262
REMARK  107  A    between atoms: _262  and  _263
REMARK  108  A    between atoms: _263  and  _264
REMARK  109  A    between atoms: _266  and  _268
REMARK  110  A    between atoms: _268  and  _269
REMARK  111  A    between atoms: _268  and  _271
REMARK  112  A    between atoms: _271  and  _272
REMARK  113  A    between atoms: _275  and  _277
REMARK  114  A    between atoms: _277  and  _278
REMARK  115  A    between atoms: _277  and  _280
REMARK  116  A    between atoms: _280  and  _281
REMARK  117  A    between atoms: _281  and  _282
REMARK  118  A    between atoms: _285  and  _287
REMARK  119  A    between atoms: _287  and  _288
REMARK  120  A    between atoms: _287  and  _290
REMARK  121  A    between atoms: _290  and  _291
REMARK  122  A    between atoms: _294  and  _296
REMARK  123  A    between atoms: _296  and  _297
REMARK  124  A    between atoms: _296  and  _299
REMARK  125  A    between atoms: _299  and  _300
REMARK  126  A    between atoms: _305  and  _307
REMARK  127  A    between atoms: _307  and  _308
REMARK  128  A    between atoms: _307  and  _310
REMARK  129  A    between atoms: _310  and  _311
REMARK  130  A    between atoms: _311  and  _312
REMARK  131  A    between atoms: _314  and  _316
REMARK  132  A    between atoms: _316  and  _317
REMARK  133  A    between atoms: _316  and  _319
REMARK  134  A    between atoms: _319  and  _320
REMARK  135  A    between atoms: _325  and  _327
REMARK  136  A    between atoms: _327  and  _328
REMARK  137  A    between atoms: _327  and  _330
REMARK  138  A    between atoms: _330  and  _331
REMARK  139  A    between atoms: _334  and  _336
REMARK  140  A    between atoms: _336  and  _337
REMARK  141  A    between atoms: _336  and  _339
REMARK  142  A    between atoms: _339  and  _340
REMARK  143  A    between atoms: _345  and  _347
REMARK  144  A    between atoms: _347  and  _348
REMARK  145  A    between atoms: _350  and  _352
REMARK  146  A    between atoms: _352  and  _353
REMARK  147  A    between atoms: _356  and  _358
REMARK  148  A    between atoms: _358  and  _359
REMARK  149  A    between atoms: _358  and  _361
REMARK  150  A    between atoms: _364  and  _366
REMARK  151  A    between atoms: _366  and  _367
REMARK  152  A    between atoms: _369  and  _371
REMARK  153  A    between atoms: _371  and  _372
REMARK  154  A    between atoms: _371  and  _374
REMARK  155  A    between atoms: _374  and  _375
REMARK  156  A    between atoms: _380  and  _381
REMARK  157  A    between atoms: _383  and  _385
REMARK  158  A    between atoms: _385  and  _386
REMARK  159  A    between atoms: _385  and  _388
REMARK  160  A    between atoms: _388  and  _389
REMARK  161  A    between atoms: _395  and  _397
REMARK  162  A    between atoms: _397  and  _398
REMARK  163  A    between atoms: _397  and  _400
REMARK  164  A    between atoms: _400  and  _401
REMARK  165  A    between atoms: _404  and  _406
REMARK  166  A    between atoms: _406  and  _407
REMARK  167  A    between atoms: _406  and  _409
REMARK  168  A    between atoms: _409  and  _410
REMARK  169  A    between atoms: _413  and  _415
REMARK  170  A    between atoms: _415  and  _416
REMARK  171  A    between atoms: _418  and  _420
REMARK  172  A    between atoms: _420  and  _421
REMARK  173  A    between atoms: _420  and  _423
REMARK  174  A    between atoms: _423  and  _424
REMARK  175  A    between atoms: _427  and  _429
REMARK  176  A    between atoms: _429  and  _430
REMARK  177  A    between atoms: _429  and  _432
REMARK  178  A    between atoms: _432  and  _433
REMARK  179  A    between atoms: _436  and  _438
REMARK  180  A    between atoms: _438  and  _439
REMARK  181  A    between atoms: _438  and  _441
REMARK  182  A    between atoms: _441  and  _442
REMARK  183  A    between atoms: _447  and  _449
REMARK  184  A    between atoms: _449  and  _450
REMARK  185  A    between atoms: _449  and  _452
REMARK  186  A    between atoms: _452  and  _453
REMARK  187  A    between atoms: _456  and  _458
REMARK  188  A    between atoms: _458  and  _459
REMARK  189  A    between atoms: _458  and  _461
REMARK  190  A    between atoms: _461  and  _462
REMARK  191  A    between atoms: _465  and  _467
REMARK  192  A    between atoms: _467  and  _468
REMARK  193  A    between atoms: _470  and  _472
REMARK  194  A    between atoms: _472  and  _473
REMARK  195  A    between atoms: _472  and  _475
REMARK  196  A    between atoms: _475  and  _476
REMARK  197  A    between atoms: _476  and  _477
REMARK  198  A    between atoms: _477  and  _478
REMARK  199  A    between atoms: _487  and  _489
REMARK  200  A    between atoms: _489  and  _490
REMARK  201  A    between atoms: _492  and  _494
REMARK  202  A    between atoms: _494  and  _495
REMARK  203  A    between atoms: _494  and  _497
REMARK  204  A    between atoms: _497  and  _498
REMARK  205  A    between atoms: _501  and  _503
REMARK  206  A    between atoms: _503  and  _504
REMARK  207  A    between atoms: _503  and  _512
REMARK  208  A    between atoms: _504  and  _505
REMARK  209  A    between atoms: _505  and  _506
REMARK  210  A    between atoms: _506  and  _507
REMARK  211  A    between atoms: _507  and  _508
REMARK  212  A    between atoms: _514  and  _516
REMARK  213  A    between atoms: _516  and  _517
REMARK  214  A    between atoms: _516  and  _519
REMARK  215  A    between atoms: _519  and  _520
REMARK  216  A    between atoms: _525  and  _527
REMARK  217  A    between atoms: _527  and  _528
REMARK  218  A    between atoms: _527  and  _530
REMARK  219  A    between atoms: _530  and  _531
REMARK  220  A    between atoms: _531  and  _532
REMARK  221  A    between atoms: _534  and  _536
REMARK  222  A    between atoms: _536  and  _537
REMARK  223  A    between atoms: _540  and  _542
REMARK  224  A    between atoms: _542  and  _543
REMARK  225  A    between atoms: _542  and  _545
REMARK  226  A    between atoms: _548  and  _550
REMARK  227  A    between atoms: _550  and  _551
REMARK  228  A    between atoms: _550  and  _553
REMARK  229  A    between atoms: _553  and  _554
REMARK  230  A    between atoms: _554  and  _555
REMARK  231  A    between atoms: _560  and  _562
REMARK  232  A    between atoms: _562  and  _563
REMARK  233  A    between atoms: _562  and  _565
REMARK  234  A    between atoms: _565  and  _566
REMARK                            x       y       z     vdW  Elec       q    Type
REMARK                         _______ _______ _______ _____ _____    ______ ____
ROOT
ATOM      1  CA  THR A   6      36.041 -44.361  -6.884  0.00  0.00    +0.176 C 
ENDROOT
BRANCH   1   2
ATOM      2  C   THR A   6      36.384 -43.696  -8.217  0.00  0.00    +0.243 C 
ATOM      3  O   THR A   6      36.139 -42.504  -8.390  0.00  0.00    -0.273 OA
ATOM      4  N   GLU A   7      36.905 -44.483  -9.158  0.00  0.00    -0.297 N 
ATOM      5  H   GLU A   7      36.984 -45.503  -8.969  0.00  0.00    +0.150 HD
BRANCH   4   6
ATOM      6  CA  GLU A   7      37.372 -43.968 -10.450  0.00  0.00    +0.149 C 
BRANCH   6   7
ATOM      7  C   GLU A   7      36.260 -43.570 -11.414  0.00  0.00    +0.241 C 
ATOM      8  N   THR A   8      35.061 -44.097 -11.209  0.00  0.00    -0.295 N 
ATOM      9  H   THR A   8      34.864 -44.624 -10.334  0.00  0.00    +0.150 HD
ATOM     10  O   GLU A   7      36.494 -42.814 -12.361  0.00  0.00    -0.273 OA
BRANCH   8  11
ATOM     11  CA  THR A   8      34.016 -43.934 -12.219  0.00  0.00    +0.176 C 
BRANCH  11  12
ATOM     12  C   THR A   8      32.729 -43.321 -11.692  0.00  0.00    +0.243 C 
ATOM     13  N   ASN A   9      32.679 -42.977 -10.407  0.00  0.00    -0.297 N 
ATOM     14  H   ASN A   9      33.545 -42.951  -9.832  0.00  0.00    +0.150 HD
ATOM     15  O   THR A   8      31.774 -43.170 -12.446  0.00  0.00    -0.273 OA
BRANCH  13  16
ATOM     16  CA  ASN A   9      31.391 -42.638  -9.820  0.00  0.00    +0.158 C 
BRANCH  16  17
ATOM     17  C   ASN A   9      30.389 -43.751 -10.142  0.00  0.00    +0.241 C 
ATOM     18  O   ASN A   9      30.775 -44.915 -10.212  0.00  0.00    -0.273 OA
ATOM     19  N   MET A  10      29.113 -43.433 -10.317  0.00  0.00    -0.297 N 
ATOM     20  H   MET A  10      28.814 -42.438 -10.353  0.00  0.00    +0.150 HD
BRANCH  19  21
ATOM     21  CA  MET A  10      28.140 -44.509 -10.458  0.00  0.00    +0.149 C 
BRANCH  21  22
ATOM     22  C   MET A  10      28.004 -44.935 -11.913  0.00  0.00    +0.241 C 
ATOM     23  N   ASN A  11      28.064 -46.246 -12.157  0.00  0.00    -0.297 N 
ATOM     24  H   ASN A  11      28.161 -46.901 -11.355  0.00  0.00    +0.150 HD
ATOM     25  O   MET A  10      27.858 -44.095 -12.789  0.00  0.00    -0.273 OA
BRANCH  23  26
ATOM     26  CA  ASN A  11      27.998 -46.794 -13.512  0.00  0.00    +0.158 C 
BRANCH  26  27
ATOM     27  C   ASN A  11      26.633 -47.341 -13.891  0.00  0.00    +0.241 C 
ATOM     28  N   THR A  12      26.048 -48.110 -12.973  0.00  0.00    -0.296 N 
ATOM     29  H   THR A  12      26.508 -48.223 -12.047  0.00  0.00    +0.150 HD
ATOM     30  O   ASN A  11      26.152 -47.123 -15.010  0.00  0.00    -0.273 OA
BRANCH  28  31
ATOM     31  CA  THR A  12      24.789 -48.797 -13.219  0.00  0.00    +0.164 C 
BRANCH  31  32
ATOM     32  C   THR A  12      23.880 -48.645 -12.020  0.00  0.00    +0.229 C 
ATOM     33  O   THR A  12      24.334 -48.352 -10.911  0.00  0.00    -0.286 OA
ENDBRANCH  31  32
BRANCH  31  34
ATOM     34  CB  THR A  12      24.989 -50.328 -13.440  0.00  0.00    +0.136 C 
ATOM     35  CG2 THR A  12      26.065 -50.607 -14.493  0.00  0.00    +0.034 C 
BRANCH  34  36
ATOM     36  OG1 THR A  12      25.365 -50.950 -12.203  0.00  0.00    -0.382 OA
ATOM     37  HG1 THR A  12      24.652 -50.805 -11.532  0.00  0.00    +0.210 HD
ENDBRANCH  34  36
ENDBRANCH  31  34
ENDBRANCH  28  31
ENDBRANCH  26  27
BRANCH  26  38
ATOM     38  CB  ASN A  11      29.010 -47.939 -13.655  0.00  0.00    +0.114 C 
BRANCH  38  39
ATOM     39  CG  ASN A  11      30.436 -47.472 -13.473  0.00  0.00    +0.222 C 
ATOM     40  ND2 ASN A  11      31.227 -48.236 -12.724  0.00  0.00    -0.329 N 
ATOM     41 HD21 ASN A  11      30.853 -49.105 -12.292  0.00  0.00    +0.145 HD
ATOM     42 HD22 ASN A  11      32.219 -47.964 -12.570  0.00  0.00    +0.145 HD
ATOM     43  OD1 ASN A  11      30.824 -46.437 -14.006  0.00  0.00    -0.275 OA
ENDBRANCH  38  39
ENDBRANCH  26  38
ENDBRANCH  23  26
ENDBRANCH  21  22
BRANCH  21  44
ATOM     44  CB  MET A  10      26.790 -44.101  -9.875  0.00  0.00    +0.041 C 
BRANCH  44  45
ATOM     45  CG  MET A  10      26.851 -43.721  -8.402  0.00  0.00    +0.060 C 
BRANCH  45  46
ATOM     46  SD  MET A  10      27.452 -45.035  -7.323  0.00  0.00    -0.139 S 
ATOM     47  CE  MET A  10      29.144 -44.508  -7.012  0.00  0.00    +0.069 C 
ENDBRANCH  45  46
ENDBRANCH  44  45
ENDBRANCH  21  44
ENDBRANCH  19  21
ENDBRANCH  16  17
BRANCH  16  48
ATOM     48  CB  ASN A   9      30.943 -41.257 -10.300  0.00  0.00    +0.114 C 
BRANCH  48  49
ATOM     49  CG  ASN A   9      32.019 -40.209 -10.059  0.00  0.00    +0.222 C 
ATOM     50  OD1 ASN A   9      32.273 -39.822  -8.915  0.00  0.00    -0.275 OA
ATOM     51  ND2 ASN A   9      32.704 -39.800 -11.123  0.00  0.00    -0.329 N 
ATOM     52 HD21 ASN A   9      33.489 -39.127 -11.009  0.00  0.00    +0.145 HD
ATOM     53 HD22 ASN A   9      32.455 -40.153 -12.069  0.00  0.00    +0.145 HD
ENDBRANCH  48  49
ENDBRANCH  16  48
ENDBRANCH  13  16
ENDBRANCH  11  12
BRANCH  11  54
ATOM     54  CB  THR A   8      33.626 -45.296 -12.826  0.00  0.00    +0.137 C 
ATOM     55  CG2 THR A   8      34.858 -46.064 -13.293  0.00  0.00    +0.034 C 
BRANCH  54  56
ATOM     56  OG1 THR A   8      32.946 -46.071 -11.831  0.00  0.00    -0.382 OA
ATOM     57  HG1 THR A   8      32.132 -45.589 -11.539  0.00  0.00    +0.210 HD
ENDBRANCH  54  56
ENDBRANCH  11  54
ENDBRANCH   8  11
ENDBRANCH   6   7
BRANCH   6  58
ATOM     58  CB  GLU A   7      38.242 -45.010 -11.169  0.00  0.00    +0.041 C 
BRANCH  58  59
ATOM     59  CG  GLU A   7      39.541 -45.367 -10.469  0.00  0.00    +0.116 C 
BRANCH  59  60
ATOM     60  CD  GLU A   7      39.414 -46.587  -9.570  0.00  0.00    +0.365 C 
ATOM     61  OE2 GLU A   7      38.312 -46.828  -9.027  0.00  0.00    -0.246 OA
ATOM     62  OE1 GLU A   7      40.430 -47.300  -9.400  0.00  0.00    -0.246 OA
ENDBRANCH  59  60
ENDBRANCH  58  59
ENDBRANCH   6  58
ENDBRANCH   4   6
ENDBRANCH   1   2
BRANCH   1  64
ATOM     63  C   MET A   5      34.307 -45.704  -7.900  0.00  0.00    +0.241 C 
ATOM     64  N   THR A   6      35.356 -45.615  -7.095  0.00  0.00    -0.295 N 
ATOM     65  H   THR A   6      35.694 -46.467  -6.604  0.00  0.00    +0.150 HD
ATOM     66  O   MET A   5      33.781 -44.728  -8.444  0.00  0.00    -0.273 OA
BRANCH  63  67
ATOM     67  CA  MET A   5      33.794 -47.100  -8.158  0.00  0.00    +0.149 C 
BRANCH  67  70
ATOM     68  C   GLY A   4      31.468 -47.830  -8.309  0.00  0.00    +0.243 C 
ATOM     69  O   GLY A   4      31.663 -48.833  -7.628  0.00  0.00    -0.273 OA
ATOM     70  N   MET A   5      32.421 -46.962  -8.629  0.00  0.00    -0.297 N 
ATOM     71  H   MET A   5      32.179 -46.154  -9.238  0.00  0.00    +0.150 HD
BRANCH  68  72
ATOM     72  CA  GLY A   4      30.093 -47.534  -8.856  0.00  0.00    +0.176 C 
BRANCH  72  74
ATOM     73  C   TYR A   3      28.144 -48.908  -9.250  0.00  0.00    +0.241 C 
ATOM     74  N   GLY A   4      29.170 -48.582  -8.477  0.00  0.00    -0.295 N 
ATOM     75  H   GLY A   4      29.315 -49.089  -7.581  0.00  0.00    +0.150 HD
ATOM     76  O   TYR A   3      27.891 -48.338 -10.308  0.00  0.00    -0.273 OA
BRANCH  73  77
ATOM     77  CA  TYR A   3      27.285 -50.052  -8.753  0.00  0.00    +0.153 C 
BRANCH  77  80
ATOM     78  C   ARG A   2      25.139 -49.768  -7.608  0.00  0.00    +0.241 C 
ATOM     79  O   ARG A   2      25.600 -50.070  -6.507  0.00  0.00    -0.273 OA
ATOM     80  N   TYR A   3      25.879 -49.668  -8.708  0.00  0.00    -0.297 N 
ATOM     81  H   TYR A   3      25.436 -49.300  -9.574  0.00  0.00    +0.150 HD
BRANCH  78  82
ATOM     82  CA  ARG A   2      23.648 -49.485  -7.779  0.00  0.00    +0.149 C 
BRANCH  82  84
ATOM     83  C   GLU A   1      21.780 -50.753  -6.873  0.00  0.00    +0.238 C 
ATOM     84  N   ARG A   2      22.902 -50.068  -6.670  0.00  0.00    -0.297 N 
ATOM     85  H   ARG A   2      23.255 -49.946  -5.699  0.00  0.00    +0.150 HD
ATOM     86  O   GLU A   1      21.241 -50.840  -7.977  0.00  0.00    -0.274 OA
BRANCH  83  87
ATOM     87  CA  GLU A   1      21.172 -51.443  -5.652  0.00  0.00    +0.145 C 
BRANCH  87  88
ATOM     88  N   GLU A   1      19.712 -51.383  -5.677  0.00  0.00    -0.238 NA
ATOM     89  H   GLU A   1      19.181 -52.060  -6.261  0.00  0.00    +0.142 HD
ENDBRANCH  87  88
BRANCH  87  90
ATOM     90  CB  GLU A   1      21.642 -52.901  -5.575  0.00  0.00    +0.038 C 
BRANCH  90  91
ATOM     91  CG  GLU A   1      23.159 -53.078  -5.546  0.00  0.00    +0.116 C 
BRANCH  91  92
ATOM     92  CD  GLU A   1      23.558 -54.540  -5.356  0.00  0.00    +0.365 C 
ATOM     93  OE2 GLU A   1      24.665 -54.802  -4.846  0.00  0.00    -0.246 OA
ATOM     94  OE1 GLU A   1      22.756 -55.423  -5.721  0.00  0.00    -0.246 OA
ENDBRANCH  91  92
ENDBRANCH  90  91
ENDBRANCH  87  90
ENDBRANCH  83  87
ENDBRANCH  82  84
BRANCH  82  95
ATOM     95  CB  ARG A   2      23.374 -47.970  -7.933  0.00  0.00    +0.033 C 
BRANCH  95  96
ATOM     96  CG  ARG A   2      24.267 -47.037  -7.079  0.00  0.00    +0.045 C 
BRANCH  96  97
ATOM     97  CD  ARG A   2      24.130 -47.298  -5.577  0.00  0.00    +0.174 C 
BRANCH  97  98
ATOM     98  NE  ARG A   2      24.923 -46.349  -4.781  0.00  0.00    -0.265 N 
ATOM     99  HE  ARG A   2      24.428 -45.546  -4.342  0.00  0.00    +0.259 HD
ATOM    100  CZ  ARG A   2      26.237 -46.455  -4.588  0.00  0.00    +0.342 C 
ATOM    101  NH2 ARG A   2      26.890 -45.555  -3.854  0.00  0.00    -0.292 N 
ATOM    102 HH21 ARG A   2      26.374 -44.760  -3.425  0.00  0.00    +0.255 HD
ATOM    103 HH22 ARG A   2      27.916 -45.647  -3.710  0.00  0.00    +0.255 HD
ATOM    104  NH1 ARG A   2      26.901 -47.471  -5.125  0.00  0.00    -0.292 N 
ATOM    105 HH11 ARG A   2      27.927 -47.558  -4.977  0.00  0.00    +0.255 HD
ATOM    106 HH12 ARG A   2      26.396 -48.180  -5.694  0.00  0.00    +0.255 HD
ENDBRANCH  97  98
ENDBRANCH  96  97
ENDBRANCH  95  96
ENDBRANCH  82  95
ENDBRANCH  78  82
ENDBRANCH  77  80
BRANCH  77 107
ATOM    107  CB  TYR A   3      27.446 -51.270  -9.672  0.00  0.00    +0.055 C 
BRANCH 107 108
ATOM    108  CG  TYR A   3      28.809 -51.489 -10.308  0.00  0.00    -0.020 A 
ATOM    109  CD2 TYR A   3      29.943 -51.723  -9.533  0.00  0.00    -0.001 A 
ATOM    110  CE2 TYR A   3      31.183 -51.967 -10.128  0.00  0.00    +0.036 A 
ATOM    111  CZ  TYR A   3      31.287 -51.996 -11.515  0.00  0.00    +0.134 A 
ATOM    112  CE1 TYR A   3      30.177 -51.774 -12.296  0.00  0.00    +0.036 A 
ATOM    113  CD1 TYR A   3      28.943 -51.529 -11.694  0.00  0.00    -0.001 A 
BRANCH 111 114
ATOM    114  OH  TYR A   3      32.504 -52.244 -12.126  0.00  0.00    -0.506 OA
ATOM    115  HH  TYR A   3      33.198 -52.382 -11.433  0.00  0.00    +0.292 HD
ENDBRANCH 111 114
ENDBRANCH 107 108
ENDBRANCH  77 107
ENDBRANCH  73  77
ENDBRANCH  72  74
ENDBRANCH  68  72
ENDBRANCH  67  70
BRANCH  67 116
ATOM    116  CB  MET A   5      34.698 -47.726  -9.236  0.00  0.00    +0.041 C 
BRANCH 116 117
ATOM    117  CG  MET A   5      34.232 -49.041  -9.799  0.00  0.00    +0.060 C 
BRANCH 117 118
ATOM    118  SD  MET A   5      35.209 -49.522 -11.249  0.00  0.00    -0.139 S 
ATOM    119  CE  MET A   5      36.862 -49.442 -10.585  0.00  0.00    +0.069 C 
ENDBRANCH 117 118
ENDBRANCH 116 117
ENDBRANCH  67 116
ENDBRANCH  63  67
ENDBRANCH   1  64
BRANCH   1 120
ATOM    120  CB  THR A   6      37.304 -44.549  -6.037  0.00  0.00    +0.137 C 
ATOM    121  CG2 THR A   6      38.081 -43.236  -5.925  0.00  0.00    +0.034 C 
BRANCH 120 122
ATOM    122  OG1 THR A   6      36.918 -44.997  -4.732  0.00  0.00    -0.382 OA
ATOM    123  HG1 THR A   6      36.329 -44.321  -4.313  0.00  0.00    +0.210 HD
ENDBRANCH 120 122
ENDBRANCH   1 120
TORSDOF 53
REMARK  Name = ../refined-set-2016/4fut/4fut_pocket.pdb
REMARK  234 active torsions:
REMARK  status: ('A' for Active; 'I' for Inactive)
REMARK    1  A    between atoms: _1  and  _3
REMARK    2  A    between atoms: _3  and  _4
REMARK    3  A    between atoms: _3  and  _6
REMARK    4  A    between atoms: _6  and  _7
REMARK    5  A    between atoms: _12  and  _13
REMARK    6  A    between atoms: _15  and  _17
REMARK    7  A    between atoms: _17  and  _18
REMARK    8  A    between atoms: _17  and  _20
REMARK    9  A    between atoms: _20  and  _21
REMARK   10  A    between atoms: _24  and  _26
REMARK   11  A    between atoms: _26  and  _27
REMARK   12  A    between atoms: _26  and  _29
REMARK   13  A    between atoms: _29  and  _30
REMARK   14  A    between atoms: _35  and  _36
REMARK   15  A    between atoms: _38  and  _40
REMARK   16  A    between atoms: _40  and  _41
REMARK   17  A    between atoms: _40  and  _43
REMARK   18  A    between atoms: _43  and  _44
REMARK   19  A    between atoms: _47  and  _49
REMARK   20  A    between atoms: _49  and  _50
REMARK   21  A    between atoms: _49  and  _52
REMARK   22  A    between atoms: _52  and  _53
REMARK   23  A    between atoms: _55  and  _57
REMARK   24  A    between atoms: _57  and  _58
REMARK   25  A    between atoms: _60  and  _62
REMARK   26  A    between atoms: _62  and  _63
REMARK   27  A    between atoms: _62  and  _65
REMARK   28  A    between atoms: _65  and  _66
REMARK   29  A    between atoms: _69  and  _71
REMARK   30  A    between atoms: _71  and  _72
REMARK   31  A    between atoms: _71  and  _74
REMARK   32  A    between atoms: _74  and  _75
REMARK   33  A    between atoms: _78  and  _80
REMARK   34  A    between atoms: _80  and  _81
REMARK   35  A    between atoms: _83  and  _85
REMARK   36  A    between atoms: _85  and  _86
REMARK   37  A    between atoms: _85  and  _88
REMARK   38  A    between atoms: _88  and  _89
REMARK   39  A    between atoms: _89  and  _90
REMARK   40  A    between atoms: _90  and  _91
REMARK   41  A    between atoms: _100  and  _102
REMARK   42  A    between atoms: _102  and  _103
REMARK   43  A    between atoms: _102  and  _105
REMARK   44  A    between atoms: _105  and  _106
REMARK   45  A    between atoms: _108  and  _110
REMARK   46  A    between atoms: _110  and  _111
REMARK   47  A    between atoms: _110  and  _119
REMARK   48  A    between atoms: _111  and  _112
REMARK   49  A    between atoms: _112  and  _113
REMARK   50  A    between atoms: _113  and  _114
REMARK   51  A    between atoms: _114  and  _115
REMARK   52  A    between atoms: _121  and  _123
REMARK   53  A    between atoms: _123  and  _124
REMARK   54  A    between atoms: _123  and  _126
REMARK   55  A    between atoms: _126  and  _127
REMARK   56  A    between atoms: _132  and  _134
REMARK   57  A    between atoms: _134  and  _135
REMARK   58  A    between atoms: _134  and  _137
REMARK   59  A    between atoms: _137  and  _138
REMARK   60  A    between atoms: _141  and  _143
REMARK   61  A    between atoms: _143  and  _144
REMARK   62  A    between atoms: _143  and  _146
REMARK   63  A    between atoms: _146  and  _147
REMARK   64  A    between atoms: _153  and  _154
REMARK   65  A    between atoms: _159  and  _161
REMARK   66  A    between atoms: _161  and  _162
REMARK   67  A    between atoms: _161  and  _164
REMARK   68  A    between atoms: _164  and  _165
REMARK   69  A    between atoms: _167  and  _169
REMARK   70  A    between atoms: _169  and  _170
REMARK   71  A    between atoms: _172  and  _174
REMARK   72  A    between atoms: _174  and  _175
REMARK   73  A    between atoms: _174  and  _177
REMARK   74  A    between atoms: _177  and  _178
REMARK   75  A    between atoms: _180  and  _182
REMARK   76  A    between atoms: _182  and  _183
REMARK   77  A    between atoms: _187  and  _188
REMARK   78  A    between atoms: _193  and  _195
REMARK   79  A    between atoms: _195  and  _196
REMARK   80  A    between atoms: _195  and  _198
REMARK   81  A    between atoms: _198  and  _199
REMARK   82  A    between atoms: _202  and  _204
REMARK   83  A    between atoms: _204  and  _205
REMARK   84  A    between atoms: _204  and  _207
REMARK   85  A    between atoms: _207  and  _208
REMARK   86  A    between atoms: _211  and  _213
REMARK   87  A    between atoms: _213  and  _214
REMARK   88  A    between atoms: _213  and  _216
REMARK   89  A    between atoms: _216  and  _217
REMARK   90  A    between atoms: _217  and  _218
REMARK   91  A    between atoms: _221  and  _223
REMARK   92  A    between atoms: _223  and  _224
REMARK   93  A    between atoms: _223  and  _226
REMARK   94  A    between atoms: _226  and  _227
REMARK   95  A    between atoms: _227  and  _228
REMARK   96  A    between atoms: _228  and  _229
REMARK   97  A    between atoms: _238  and  _240
REMARK   98  A    between atoms: _240  and  _241
REMARK   99  A    between atoms: _240  and  _243
REMARK  100  A    between atoms: _243  and  _244
REMARK  101  A    between atoms: _249  and  _250
REMARK  102  A    between atoms: _252  and  _254
REMARK  103  A    between atoms: _254  and  _255
REMARK  104  A    between atoms: _257  and  _259
REMARK  105  A    between atoms: _259  and  _260
REMARK  106  A    between atoms: _259  and  _262
REMARK  107  A    between atoms: _262  and  _263
REMARK  108  A    between atoms: _263  and  _264
REMARK  109  A    between atoms: _266  and  _268
REMARK  110  A    between atoms: _268  and  _269
REMARK  111  A    between atoms: _268  and  _271
REMARK  112  A    between atoms: _271  and  _272
REMARK  113  A    between atoms: _275  and  _277
REMARK  114  A    between atoms: _277  and  _278
REMARK  115  A    between atoms: _277  and  _280
REMARK  116  A    between atoms: _280  and  _281
REMARK  117  A    between atoms: _281  and  _282
REMARK  118  A    between atoms: _285  and  _287
REMARK  119  A    between atoms: _287  and  _288
REMARK  120  A    between atoms: _287  and  _290
REMARK  121  A    between atoms: _290  and  _291
REMARK  122  A    between atoms: _294  and  _296
REMARK  123  A    between atoms: _296  and  _297
REMARK  124  A    between atoms: _296  and  _299
REMARK  125  A    between atoms: _299  and  _300
REMARK  126  A    between atoms: _305  and  _307
REMARK  127  A    between atoms: _307  and  _308
REMARK  128  A    between atoms: _307  and  _310
REMARK  129  A    between atoms: _310  and  _311
REMARK  130  A    between atoms: _311  and  _312
REMARK  131  A    between atoms: _314  and  _316
REMARK  132  A    between atoms: _316  and  _317
REMARK  133  A    between atoms: _316  and  _319
REMARK  134  A    between atoms: _319  and  _320
REMARK  135  A    between atoms: _325  and  _327
REMARK  136  A    between atoms: _327  and  _328
REMARK  137  A    between atoms: _327  and  _330
REMARK  138  A    between atoms: _330  and  _331
REMARK  139  A    between atoms: _334  and  _336
REMARK  140  A    between atoms: _336  and  _337
REMARK  141  A    between atoms: _336  and  _339
REMARK  142  A    between atoms: _339  and  _340
REMARK  143  A    between atoms: _345  and  _347
REMARK  144  A    between atoms: _347  and  _348
REMARK  145  A    between atoms: _350  and  _352
REMARK  146  A    between atoms: _352  and  _353
REMARK  147  A    between atoms: _356  and  _358
REMARK  148  A    between atoms: _358  and  _359
REMARK  149  A    between atoms: _358  and  _361
REMARK  150  A    between atoms: _364  and  _366
REMARK  151  A    between atoms: _366  and  _367
REMARK  152  A    between atoms: _369  and  _371
REMARK  153  A    between atoms: _371  and  _372
REMARK  154  A    between atoms: _371  and  _374
REMARK  155  A    between atoms: _374  and  _375
REMARK  156  A    between atoms: _380  and  _381
REMARK  157  A    between atoms: _383  and  _385
REMARK  158  A    between atoms: _385  and  _386
REMARK  159  A    between atoms: _385  and  _388
REMARK  160  A    between atoms: _388  and  _389
REMARK  161  A    between atoms: _395  and  _397
REMARK  162  A    between atoms: _397  and  _398
REMARK  163  A    between atoms: _397  and  _400
REMARK  164  A    between atoms: _400  and  _401
REMARK  165  A    between atoms: _404  and  _406
REMARK  166  A    between atoms: _406  and  _407
REMARK  167  A    between atoms: _406  and  _409
REMARK  168  A    between atoms: _409  and  _410
REMARK  169  A    between atoms: _413  and  _415
REMARK  170  A    between atoms: _415  and  _416
REMARK  171  A    between atoms: _418  and  _420
REMARK  172  A    between atoms: _420  and  _421
REMARK  173  A    between atoms: _420  and  _423
REMARK  174  A    between atoms: _423  and  _424
REMARK  175  A    between atoms: _427  and  _429
REMARK  176  A    between atoms: _429  and  _430
REMARK  177  A    between atoms: _429  and  _432
REMARK  178  A    between atoms: _432  and  _433
REMARK  179  A    between atoms: _436  and  _438
REMARK  180  A    between atoms: _438  and  _439
REMARK  181  A    between atoms: _438  and  _441
REMARK  182  A    between atoms: _441  and  _442
REMARK  183  A    between atoms: _447  and  _449
REMARK  184  A    between atoms: _449  and  _450
REMARK  185  A    between atoms: _449  and  _452
REMARK  186  A    between atoms: _452  and  _453
REMARK  187  A    between atoms: _456  and  _458
REMARK  188  A    between atoms: _458  and  _459
REMARK  189  A    between atoms: _458  and  _461
REMARK  190  A    between atoms: _461  and  _462
REMARK  191  A    between atoms: _465  and  _467
REMARK  192  A    between atoms: _467  and  _468
REMARK  193  A    between atoms: _470  and  _472
REMARK  194  A    between atoms: _472  and  _473
REMARK  195  A    between atoms: _472  and  _475
REMARK  196  A    between atoms: _475  and  _476
REMARK  197  A    between atoms: _476  and  _477
REMARK  198  A    between atoms: _477  and  _478
REMARK  199  A    between atoms: _487  and  _489
REMARK  200  A    between atoms: _489  and  _490
REMARK  201  A    between atoms: _492  and  _494
REMARK  202  A    between atoms: _494  and  _495
REMARK  203  A    between atoms: _494  and  _497
REMARK  204  A    between atoms: _497  and  _498
REMARK  205  A    between atoms: _501  and  _503
REMARK  206  A    between atoms: _503  and  _504
REMARK  207  A    between atoms: _503  and  _512
REMARK  208  A    between atoms: _504  and  _505
REMARK  209  A    between atoms: _505  and  _506
REMARK  210  A    between atoms: _506  and  _507
REMARK  211  A    between atoms: _507  and  _508
REMARK  212  A    between atoms: _514  and  _516
REMARK  213  A    between atoms: _516  and  _517
REMARK  214  A    between atoms: _516  and  _519
REMARK  215  A    between atoms: _519  and  _520
REMARK  216  A    between atoms: _525  and  _527
REMARK  217  A    between atoms: _527  and  _528
REMARK  218  A    between atoms: _527  and  _530
REMARK  219  A    between atoms: _530  and  _531
REMARK  220  A    between atoms: _531  and  _532
REMARK  221  A    between atoms: _534  and  _536
REMARK  222  A    between atoms: _536  and  _537
REMARK  223  A    between atoms: _540  and  _542
REMARK  224  A    between atoms: _542  and  _543
REMARK  225  A    between atoms: _542  and  _545
REMARK  226  A    between atoms: _548  and  _550
REMARK  227  A    between atoms: _550  and  _551
REMARK  228  A    between atoms: _550  and  _553
REMARK  229  A    between atoms: _553  and  _554
REMARK  230  A    between atoms: _554  and  _555
REMARK  231  A    between atoms: _560  and  _562
REMARK  232  A    between atoms: _562  and  _563
REMARK  233  A    between atoms: _562  and  _565
REMARK  234  A    between atoms: _565  and  _566
REMARK                            x       y       z     vdW  Elec       q    Type
REMARK                         _______ _______ _______ _____ _____    ______ ____
ROOT
ATOM      1  CB  ASN A   1      18.123 -51.794  -9.579  0.00  0.00    +0.110 C 
ENDROOT
BRANCH   1   2
ATOM      2  CG  ASN A   1      18.781 -53.168  -9.674  0.00  0.00    +0.221 C 
ATOM      3  ND2 ASN A   1      19.991 -53.294  -9.126  0.00  0.00    -0.329 N 
ATOM      4 HD21 ASN A   1      20.427 -52.487  -8.636  0.00  0.00    +0.145 HD
ATOM      5 HD22 ASN A   1      20.498 -54.200  -9.188  0.00  0.00    +0.145 HD
ATOM      6  OD1 ASN A   1      18.220 -54.090 -10.264  0.00  0.00    -0.275 OA
ENDBRANCH   1   2
BRANCH   1   7
ATOM      7  CA  ASN A   1      18.526 -50.888 -10.737  0.00  0.00    +0.142 C 
BRANCH   7   8
ATOM      8  N   ASN A   1      19.863 -50.367 -10.550  0.00  0.00    -0.239 NA
ATOM      9  H   ASN A   1      20.396 -50.576  -9.682  0.00  0.00    +0.142 HD
ENDBRANCH   7   8
BRANCH   7  10
ATOM     10  C   ASN A   1      17.572 -49.705 -10.914  0.00  0.00    +0.225 C 
ATOM     11  O   ASN A   1      17.785 -48.647 -10.335  0.00  0.00    -0.287 OA
ENDBRANCH   7  10
ENDBRANCH   1   7
TORSDOF 4
REMARK  Name = ../refined-set-2016/4fut/4fut_pocket.pdb
REMARK  234 active torsions:
REMARK  status: ('A' for Active; 'I' for Inactive)
REMARK    1  A    between atoms: _1  and  _3
REMARK    2  A    between atoms: _3  and  _4
REMARK    3  A    between atoms: _3  and  _6
REMARK    4  A    between atoms: _6  and  _7
REMARK    5  A    between atoms: _12  and  _13
REMARK    6  A    between atoms: _15  and  _17
REMARK    7  A    between atoms: _17  and  _18
REMARK    8  A    between atoms: _17  and  _20
REMARK    9  A    between atoms: _20  and  _21
REMARK   10  A    between atoms: _24  and  _26
REMARK   11  A    between atoms: _26  and  _27
REMARK   12  A    between atoms: _26  and  _29
REMARK   13  A    between atoms: _29  and  _30
REMARK   14  A    between atoms: _35  and  _36
REMARK   15  A    between atoms: _38  and  _40
REMARK   16  A    between atoms: _40  and  _41
REMARK   17  A    between atoms: _40  and  _43
REMARK   18  A    between atoms: _43  and  _44
REMARK   19  A    between atoms: _47  and  _49
REMARK   20  A    between atoms: _49  and  _50
REMARK   21  A    between atoms: _49  and  _52
REMARK   22  A    between atoms: _52  and  _53
REMARK   23  A    between atoms: _55  and  _57
REMARK   24  A    between atoms: _57  and  _58
REMARK   25  A    between atoms: _60  and  _62
REMARK   26  A    between atoms: _62  and  _63
REMARK   27  A    between atoms: _62  and  _65
REMARK   28  A    between atoms: _65  and  _66
REMARK   29  A    between atoms: _69  and  _71
REMARK   30  A    between atoms: _71  and  _72
REMARK   31  A    between atoms: _71  and  _74
REMARK   32  A    between atoms: _74  and  _75
REMARK   33  A    between atoms: _78  and  _80
REMARK   34  A    between atoms: _80  and  _81
REMARK   35  A    between atoms: _83  and  _85
REMARK   36  A    between atoms: _85  and  _86
REMARK   37  A    between atoms: _85  and  _88
REMARK   38  A    between atoms: _88  and  _89
REMARK   39  A    between atoms: _89  and  _90
REMARK   40  A    between atoms: _90  and  _91
REMARK   41  A    between atoms: _100  and  _102
REMARK   42  A    between atoms: _102  and  _103
REMARK   43  A    between atoms: _102  and  _105
REMARK   44  A    between atoms: _105  and  _106
REMARK   45  A    between atoms: _108  and  _110
REMARK   46  A    between atoms: _110  and  _111
REMARK   47  A    between atoms: _110  and  _119
REMARK   48  A    between atoms: _111  and  _112
REMARK   49  A    between atoms: _112  and  _113
REMARK   50  A    between atoms: _113  and  _114
REMARK   51  A    between atoms: _114  and  _115
REMARK   52  A    between atoms: _121  and  _123
REMARK   53  A    between atoms: _123  and  _124
REMARK   54  A    between atoms: _123  and  _126
REMARK   55  A    between atoms: _126  and  _127
REMARK   56  A    between atoms: _132  and  _134
REMARK   57  A    between atoms: _134  and  _135
REMARK   58  A    between atoms: _134  and  _137
REMARK   59  A    between atoms: _137  and  _138
REMARK   60  A    between atoms: _141  and  _143
REMARK   61  A    between atoms: _143  and  _144
REMARK   62  A    between atoms: _143  and  _146
REMARK   63  A    between atoms: _146  and  _147
REMARK   64  A    between atoms: _153  and  _154
REMARK   65  A    between atoms: _159  and  _161
REMARK   66  A    between atoms: _161  and  _162
REMARK   67  A    between atoms: _161  and  _164
REMARK   68  A    between atoms: _164  and  _165
REMARK   69  A    between atoms: _167  and  _169
REMARK   70  A    between atoms: _169  and  _170
REMARK   71  A    between atoms: _172  and  _174
REMARK   72  A    between atoms: _174  and  _175
REMARK   73  A    between atoms: _174  and  _177
REMARK   74  A    between atoms: _177  and  _178
REMARK   75  A    between atoms: _180  and  _182
REMARK   76  A    between atoms: _182  and  _183
REMARK   77  A    between atoms: _187  and  _188
REMARK   78  A    between atoms: _193  and  _195
REMARK   79  A    between atoms: _195  and  _196
REMARK   80  A    between atoms: _195  and  _198
REMARK   81  A    between atoms: _198  and  _199
REMARK   82  A    between atoms: _202  and  _204
REMARK   83  A    between atoms: _204  and  _205
REMARK   84  A    between atoms: _204  and  _207
REMARK   85  A    between atoms: _207  and  _208
REMARK   86  A    between atoms: _211  and  _213
REMARK   87  A    between atoms: _213  and  _214
REMARK   88  A    between atoms: _213  and  _216
REMARK   89  A    between atoms: _216  and  _217
REMARK   90  A    between atoms: _217  and  _218
REMARK   91  A    between atoms: _221  and  _223
REMARK   92  A    between atoms: _223  and  _224
REMARK   93  A    between atoms: _223  and  _226
REMARK   94  A    between atoms: _226  and  _227
REMARK   95  A    between atoms: _227  and  _228
REMARK   96  A    between atoms: _228  and  _229
REMARK   97  A    between atoms: _238  and  _240
REMARK   98  A    between atoms: _240  and  _241
REMARK   99  A    between atoms: _240  and  _243
REMARK  100  A    between atoms: _243  and  _244
REMARK  101  A    between atoms: _249  and  _250
REMARK  102  A    between atoms: _252  and  _254
REMARK  103  A    between atoms: _254  and  _255
REMARK  104  A    between atoms: _257  and  _259
REMARK  105  A    between atoms: _259  and  _260
REMARK  106  A    between atoms: _259  and  _262
REMARK  107  A    between atoms: _262  and  _263
REMARK  108  A    between atoms: _263  and  _264
REMARK  109  A    between atoms: _266  and  _268
REMARK  110  A    between atoms: _268  and  _269
REMARK  111  A    between atoms: _268  and  _271
REMARK  112  A    between atoms: _271  and  _272
REMARK  113  A    between atoms: _275  and  _277
REMARK  114  A    between atoms: _277  and  _278
REMARK  115  A    between atoms: _277  and  _280
REMARK  116  A    between atoms: _280  and  _281
REMARK  117  A    between atoms: _281  and  _282
REMARK  118  A    between atoms: _285  and  _287
REMARK  119  A    between atoms: _287  and  _288
REMARK  120  A    between atoms: _287  and  _290
REMARK  121  A    between atoms: _290  and  _291
REMARK  122  A    between atoms: _294  and  _296
REMARK  123  A    between atoms: _296  and  _297
REMARK  124  A    between atoms: _296  and  _299
REMARK  125  A    between atoms: _299  and  _300
REMARK  126  A    between atoms: _305  and  _307
REMARK  127  A    between atoms: _307  and  _308
REMARK  128  A    between atoms: _307  and  _310
REMARK  129  A    between atoms: _310  and  _311
REMARK  130  A    between atoms: _311  and  _312
REMARK  131  A    between atoms: _314  and  _316
REMARK  132  A    between atoms: _316  and  _317
REMARK  133  A    between atoms: _316  and  _319
REMARK  134  A    between atoms: _319  and  _320
REMARK  135  A    between atoms: _325  and  _327
REMARK  136  A    between atoms: _327  and  _328
REMARK  137  A    between atoms: _327  and  _330
REMARK  138  A    between atoms: _330  and  _331
REMARK  139  A    between atoms: _334  and  _336
REMARK  140  A    between atoms: _336  and  _337
REMARK  141  A    between atoms: _336  and  _339
REMARK  142  A    between atoms: _339  and  _340
REMARK  143  A    between atoms: _345  and  _347
REMARK  144  A    between atoms: _347  and  _348
REMARK  145  A    between atoms: _350  and  _352
REMARK  146  A    between atoms: _352  and  _353
REMARK  147  A    between atoms: _356  and  _358
REMARK  148  A    between atoms: _358  and  _359
REMARK  149  A    between atoms: _358  and  _361
REMARK  150  A    between atoms: _364  and  _366
REMARK  151  A    between atoms: _366  and  _367
REMARK  152  A    between atoms: _369  and  _371
REMARK  153  A    between atoms: _371  and  _372
REMARK  154  A    between atoms: _371  and  _374
REMARK  155  A    between atoms: _374  and  _375
REMARK  156  A    between atoms: _380  and  _381
REMARK  157  A    between atoms: _383  and  _385
REMARK  158  A    between atoms: _385  and  _386
REMARK  159  A    between atoms: _385  and  _388
REMARK  160  A    between atoms: _388  and  _389
REMARK  161  A    between atoms: _395  and  _397
REMARK  162  A    between atoms: _397  and  _398
REMARK  163  A    between atoms: _397  and  _400
REMARK  164  A    between atoms: _400  and  _401
REMARK  165  A    between atoms: _404  and  _406
REMARK  166  A    between atoms: _406  and  _407
REMARK  167  A    between atoms: _406  and  _409
REMARK  168  A    between atoms: _409  and  _410
REMARK  169  A    between atoms: _413  and  _415
REMARK  170  A    between atoms: _415  and  _416
REMARK  171  A    between atoms: _418  and  _420
REMARK  172  A    between atoms: _420  and  _421
REMARK  173  A    between atoms: _420  and  _423
REMARK  174  A    between atoms: _423  and  _424
REMARK  175  A    between atoms: _427  and  _429
REMARK  176  A    between atoms: _429  and  _430
REMARK  177  A    between atoms: _429  and  _432
REMARK  178  A    between atoms: _432  and  _433
REMARK  179  A    between atoms: _436  and  _438
REMARK  180  A    between atoms: _438  and  _439
REMARK  181  A    between atoms: _438  and  _441
REMARK  182  A    between atoms: _441  and  _442
REMARK  183  A    between atoms: _447  and  _449
REMARK  184  A    between atoms: _449  and  _450
REMARK  185  A    between atoms: _449  and  _452
REMARK  186  A    between atoms: _452  and  _453
REMARK  187  A    between atoms: _456  and  _458
REMARK  188  A    between atoms: _458  and  _459
REMARK  189  A    between atoms: _458  and  _461
REMARK  190  A    between atoms: _461  and  _462
REMARK  191  A    between atoms: _465  and  _467
REMARK  192  A    between atoms: _467  and  _468
REMARK  193  A    between atoms: _470  and  _472
REMARK  194  A    between atoms: _472  and  _473
REMARK  195  A    between atoms: _472  and  _475
REMARK  196  A    between atoms: _475  and  _476
REMARK  197  A    between atoms: _476  and  _477
REMARK  198  A    between atoms: _477  and  _478
REMARK  199  A    between atoms: _487  and  _489
REMARK  200  A    between atoms: _489  and  _490
REMARK  201  A    between atoms: _492  and  _494
REMARK  202  A    between atoms: _494  and  _495
REMARK  203  A    between atoms: _494  and  _497
REMARK  204  A    between atoms: _497  and  _498
REMARK  205  A    between atoms: _501  and  _503
REMARK  206  A    between atoms: _503  and  _504
REMARK  207  A    between atoms: _503  and  _512
REMARK  208  A    between atoms: _504  and  _505
REMARK  209  A    between atoms: _505  and  _506
REMARK  210  A    between atoms: _506  and  _507
REMARK  211  A    between atoms: _507  and  _508
REMARK  212  A    between atoms: _514  and  _516
REMARK  213  A    between atoms: _516  and  _517
REMARK  214  A    between atoms: _516  and  _519
REMARK  215  A    between atoms: _519  and  _520
REMARK  216  A    between atoms: _525  and  _527
REMARK  217  A    between atoms: _527  and  _528
REMARK  218  A    between atoms: _527  and  _530
REMARK  219  A    between atoms: _530  and  _531
REMARK  220  A    between atoms: _531  and  _532
REMARK  221  A    between atoms: _534  and  _536
REMARK  222  A    between atoms: _536  and  _537
REMARK  223  A    between atoms: _540  and  _542
REMARK  224  A    between atoms: _542  and  _543
REMARK  225  A    between atoms: _542  and  _545
REMARK  226  A    between atoms: _548  and  _550
REMARK  227  A    between atoms: _550  and  _551
REMARK  228  A    between atoms: _550  and  _553
REMARK  229  A    between atoms: _553  and  _554
REMARK  230  A    between atoms: _554  and  _555
REMARK  231  A    between atoms: _560  and  _562
REMARK  232  A    between atoms: _562  and  _563
REMARK  233  A    between atoms: _562  and  _565
REMARK  234  A    between atoms: _565  and  _566
REMARK                            x       y       z     vdW  Elec       q    Type
REMARK                         _______ _______ _______ _____ _____    ______ ____
ROOT
ATOM      1  C   ALA A   2      22.286 -56.182  -9.688  0.00  0.00    +0.241 C 
ATOM      2  O   ALA A   2      21.608 -55.699  -8.790  0.00  0.00    -0.273 OA
ATOM      3  N   VAL A   3      23.127 -55.457 -10.424  0.00  0.00    -0.297 N 
ATOM      4  H   VAL A   3      23.632 -55.904 -11.216  0.00  0.00    +0.150 HD
ENDROOT
BRANCH   1   5
ATOM      5  CA  ALA A   2      22.178 -57.671 -10.012  0.00  0.00    +0.149 C 
ATOM      6  CB  ALA A   2      21.203 -57.893 -11.159  0.00  0.00    +0.031 C 
BRANCH   5   8
ATOM      7  C   GLY A   1      22.478 -59.461  -8.377  0.00  0.00    +0.240 C 
ATOM      8  N   ALA A   2      21.761 -58.435  -8.836  0.00  0.00    -0.297 N 
ATOM      9  H   ALA A   2      20.883 -58.171  -8.346  0.00  0.00    +0.150 HD
ATOM     10  O   GLY A   1      23.543 -59.804  -8.882  0.00  0.00    -0.274 OA
BRANCH   7  11
ATOM     11  CA  GLY A   1      21.936 -60.212  -7.169  0.00  0.00    +0.169 C 
BRANCH  11  12
ATOM     12  N   GLY A   1      20.698 -59.704  -6.598  0.00  0.00    -0.236 NA
ATOM     13  H   GLY A   1      20.745 -59.052  -5.789  0.00  0.00    +0.142 HD
ENDBRANCH  11  12
ENDBRANCH   7  11
ENDBRANCH   5   8
ENDBRANCH   1   5
BRANCH   3  14
ATOM     14  CA  VAL A   3      23.351 -54.037 -10.134  0.00  0.00    +0.149 C 
BRANCH  14  15
ATOM     15  C   VAL A   3      22.716 -53.101 -11.176  0.00  0.00    +0.241 C 
ATOM     16  O   VAL A   3      22.959 -51.890 -11.176  0.00  0.00    -0.273 OA
ATOM     17  N   GLY A   4      21.890 -53.667 -12.050  0.00  0.00    -0.296 N 
ATOM     18  H   GLY A   4      21.803 -54.703 -12.066  0.00  0.00    +0.150 HD
BRANCH  17  19
ATOM     19  CA  GLY A   4      21.104 -52.877 -12.985  0.00  0.00    +0.163 C 
BRANCH  19  20
ATOM     20  C   GLY A   4      21.785 -52.584 -14.307  0.00  0.00    +0.229 C 
ATOM     21  O   GLY A   4      22.961 -52.914 -14.506  0.00  0.00    -0.286 OA
ENDBRANCH  19  20
ENDBRANCH  17  19
ENDBRANCH  14  15
BRANCH  14  22
ATOM     22  CB  VAL A   3      24.849 -53.731  -9.942  0.00  0.00    +0.027 C 
ATOM     23  CG2 VAL A   3      25.393 -54.511  -8.722  0.00  0.00    +0.002 C 
ATOM     24  CG1 VAL A   3      25.641 -54.094 -11.202  0.00  0.00    +0.002 C 
ENDBRANCH  14  22
ENDBRANCH   3  14
TORSDOF 9
REMARK  Name = ../refined-set-2016/4fut/4fut_pocket.pdb
REMARK  234 active torsions:
REMARK  status: ('A' for Active; 'I' for Inactive)
REMARK    1  A    between atoms: _1  and  _3
REMARK    2  A    between atoms: _3  and  _4
REMARK    3  A    between atoms: _3  and  _6
REMARK    4  A    between atoms: _6  and  _7
REMARK    5  A    between atoms: _12  and  _13
REMARK    6  A    between atoms: _15  and  _17
REMARK    7  A    between atoms: _17  and  _18
REMARK    8  A    between atoms: _17  and  _20
REMARK    9  A    between atoms: _20  and  _21
REMARK   10  A    between atoms: _24  and  _26
REMARK   11  A    between atoms: _26  and  _27
REMARK   12  A    between atoms: _26  and  _29
REMARK   13  A    between atoms: _29  and  _30
REMARK   14  A    between atoms: _35  and  _36
REMARK   15  A    between atoms: _38  and  _40
REMARK   16  A    between atoms: _40  and  _41
REMARK   17  A    between atoms: _40  and  _43
REMARK   18  A    between atoms: _43  and  _44
REMARK   19  A    between atoms: _47  and  _49
REMARK   20  A    between atoms: _49  and  _50
REMARK   21  A    between atoms: _49  and  _52
REMARK   22  A    between atoms: _52  and  _53
REMARK   23  A    between atoms: _55  and  _57
REMARK   24  A    between atoms: _57  and  _58
REMARK   25  A    between atoms: _60  and  _62
REMARK   26  A    between atoms: _62  and  _63
REMARK   27  A    between atoms: _62  and  _65
REMARK   28  A    between atoms: _65  and  _66
REMARK   29  A    between atoms: _69  and  _71
REMARK   30  A    between atoms: _71  and  _72
REMARK   31  A    between atoms: _71  and  _74
REMARK   32  A    between atoms: _74  and  _75
REMARK   33  A    between atoms: _78  and  _80
REMARK   34  A    between atoms: _80  and  _81
REMARK   35  A    between atoms: _83  and  _85
REMARK   36  A    between atoms: _85  and  _86
REMARK   37  A    between atoms: _85  and  _88
REMARK   38  A    between atoms: _88  and  _89
REMARK   39  A    between atoms: _89  and  _90
REMARK   40  A    between atoms: _90  and  _91
REMARK   41  A    between atoms: _100  and  _102
REMARK   42  A    between atoms: _102  and  _103
REMARK   43  A    between atoms: _102  and  _105
REMARK   44  A    between atoms: _105  and  _106
REMARK   45  A    between atoms: _108  and  _110
REMARK   46  A    between atoms: _110  and  _111
REMARK   47  A    between atoms: _110  and  _119
REMARK   48  A    between atoms: _111  and  _112
REMARK   49  A    between atoms: _112  and  _113
REMARK   50  A    between atoms: _113  and  _114
REMARK   51  A    between atoms: _114  and  _115
REMARK   52  A    between atoms: _121  and  _123
REMARK   53  A    between atoms: _123  and  _124
REMARK   54  A    between atoms: _123  and  _126
REMARK   55  A    between atoms: _126  and  _127
REMARK   56  A    between atoms: _132  and  _134
REMARK   57  A    between atoms: _134  and  _135
REMARK   58  A    between atoms: _134  and  _137
REMARK   59  A    between atoms: _137  and  _138
REMARK   60  A    between atoms: _141  and  _143
REMARK   61  A    between atoms: _143  and  _144
REMARK   62  A    between atoms: _143  and  _146
REMARK   63  A    between atoms: _146  and  _147
REMARK   64  A    between atoms: _153  and  _154
REMARK   65  A    between atoms: _159  and  _161
REMARK   66  A    between atoms: _161  and  _162
REMARK   67  A    between atoms: _161  and  _164
REMARK   68  A    between atoms: _164  and  _165
REMARK   69  A    between atoms: _167  and  _169
REMARK   70  A    between atoms: _169  and  _170
REMARK   71  A    between atoms: _172  and  _174
REMARK   72  A    between atoms: _174  and  _175
REMARK   73  A    between atoms: _174  and  _177
REMARK   74  A    between atoms: _177  and  _178
REMARK   75  A    between atoms: _180  and  _182
REMARK   76  A    between atoms: _182  and  _183
REMARK   77  A    between atoms: _187  and  _188
REMARK   78  A    between atoms: _193  and  _195
REMARK   79  A    between atoms: _195  and  _196
REMARK   80  A    between atoms: _195  and  _198
REMARK   81  A    between atoms: _198  and  _199
REMARK   82  A    between atoms: _202  and  _204
REMARK   83  A    between atoms: _204  and  _205
REMARK   84  A    between atoms: _204  and  _207
REMARK   85  A    between atoms: _207  and  _208
REMARK   86  A    between atoms: _211  and  _213
REMARK   87  A    between atoms: _213  and  _214
REMARK   88  A    between atoms: _213  and  _216
REMARK   89  A    between atoms: _216  and  _217
REMARK   90  A    between atoms: _217  and  _218
REMARK   91  A    between atoms: _221  and  _223
REMARK   92  A    between atoms: _223  and  _224
REMARK   93  A    between atoms: _223  and  _226
REMARK   94  A    between atoms: _226  and  _227
REMARK   95  A    between atoms: _227  and  _228
REMARK   96  A    between atoms: _228  and  _229
REMARK   97  A    between atoms: _238  and  _240
REMARK   98  A    between atoms: _240  and  _241
REMARK   99  A    between atoms: _240  and  _243
REMARK  100  A    between atoms: _243  and  _244
REMARK  101  A    between atoms: _249  and  _250
REMARK  102  A    between atoms: _252  and  _254
REMARK  103  A    between atoms: _254  and  _255
REMARK  104  A    between atoms: _257  and  _259
REMARK  105  A    between atoms: _259  and  _260
REMARK  106  A    between atoms: _259  and  _262
REMARK  107  A    between atoms: _262  and  _263
REMARK  108  A    between atoms: _263  and  _264
REMARK  109  A    between atoms: _266  and  _268
REMARK  110  A    between atoms: _268  and  _269
REMARK  111  A    between atoms: _268  and  _271
REMARK  112  A    between atoms: _271  and  _272
REMARK  113  A    between atoms: _275  and  _277
REMARK  114  A    between atoms: _277  and  _278
REMARK  115  A    between atoms: _277  and  _280
REMARK  116  A    between atoms: _280  and  _281
REMARK  117  A    between atoms: _281  and  _282
REMARK  118  A    between atoms: _285  and  _287
REMARK  119  A    between atoms: _287  and  _288
REMARK  120  A    between atoms: _287  and  _290
REMARK  121  A    between atoms: _290  and  _291
REMARK  122  A    between atoms: _294  and  _296
REMARK  123  A    between atoms: _296  and  _297
REMARK  124  A    between atoms: _296  and  _299
REMARK  125  A    between atoms: _299  and  _300
REMARK  126  A    between atoms: _305  and  _307
REMARK  127  A    between atoms: _307  and  _308
REMARK  128  A    between atoms: _307  and  _310
REMARK  129  A    between atoms: _310  and  _311
REMARK  130  A    between atoms: _311  and  _312
REMARK  131  A    between atoms: _314  and  _316
REMARK  132  A    between atoms: _316  and  _317
REMARK  133  A    between atoms: _316  and  _319
REMARK  134  A    between atoms: _319  and  _320
REMARK  135  A    between atoms: _325  and  _327
REMARK  136  A    between atoms: _327  and  _328
REMARK  137  A    between atoms: _327  and  _330
REMARK  138  A    between atoms: _330  and  _331
REMARK  139  A    between atoms: _334  and  _336
REMARK  140  A    between atoms: _336  and  _337
REMARK  141  A    between atoms: _336  and  _339
REMARK  142  A    between atoms: _339  and  _340
REMARK  143  A    between atoms: _345  and  _347
REMARK  144  A    between atoms: _347  and  _348
REMARK  145  A    between atoms: _350  and  _352
REMARK  146  A    between atoms: _352  and  _353
REMARK  147  A    between atoms: _356  and  _358
REMARK  148  A    between atoms: _358  and  _359
REMARK  149  A    between atoms: _358  and  _361
REMARK  150  A    between atoms: _364  and  _366
REMARK  151  A    between atoms: _366  and  _367
REMARK  152  A    between atoms: _369  and  _371
REMARK  153  A    between atoms: _371  and  _372
REMARK  154  A    between atoms: _371  and  _374
REMARK  155  A    between atoms: _374  and  _375
REMARK  156  A    between atoms: _380  and  _381
REMARK  157  A    between atoms: _383  and  _385
REMARK  158  A    between atoms: _385  and  _386
REMARK  159  A    between atoms: _385  and  _388
REMARK  160  A    between atoms: _388  and  _389
REMARK  161  A    between atoms: _395  and  _397
REMARK  162  A    between atoms: _397  and  _398
REMARK  163  A    between atoms: _397  and  _400
REMARK  164  A    between atoms: _400  and  _401
REMARK  165  A    between atoms: _404  and  _406
REMARK  166  A    between atoms: _406  and  _407
REMARK  167  A    between atoms: _406  and  _409
REMARK  168  A    between atoms: _409  and  _410
REMARK  169  A    between atoms: _413  and  _415
REMARK  170  A    between atoms: _415  and  _416
REMARK  171  A    between atoms: _418  and  _420
REMARK  172  A    between atoms: _420  and  _421
REMARK  173  A    between atoms: _420  and  _423
REMARK  174  A    between atoms: _423  and  _424
REMARK  175  A    between atoms: _427  and  _429
REMARK  176  A    between atoms: _429  and  _430
REMARK  177  A    between atoms: _429  and  _432
REMARK  178  A    between atoms: _432  and  _433
REMARK  179  A    between atoms: _436  and  _438
REMARK  180  A    between atoms: _438  and  _439
REMARK  181  A    between atoms: _438  and  _441
REMARK  182  A    between atoms: _441  and  _442
REMARK  183  A    between atoms: _447  and  _449
REMARK  184  A    between atoms: _449  and  _450
REMARK  185  A    between atoms: _449  and  _452
REMARK  186  A    between atoms: _452  and  _453
REMARK  187  A    between atoms: _456  and  _458
REMARK  188  A    between atoms: _458  and  _459
REMARK  189  A    between atoms: _458  and  _461
REMARK  190  A    between atoms: _461  and  _462
REMARK  191  A    between atoms: _465  and  _467
REMARK  192  A    between atoms: _467  and  _468
REMARK  193  A    between atoms: _470  and  _472
REMARK  194  A    between atoms: _472  and  _473
REMARK  195  A    between atoms: _472  and  _475
REMARK  196  A    between atoms: _475  and  _476
REMARK  197  A    between atoms: _476  and  _477
REMARK  198  A    between atoms: _477  and  _478
REMARK  199  A    between atoms: _487  and  _489
REMARK  200  A    between atoms: _489  and  _490
REMARK  201  A    between atoms: _492  and  _494
REMARK  202  A    between atoms: _494  and  _495
REMARK  203  A    between atoms: _494  and  _497
REMARK  204  A    between atoms: _497  and  _498
REMARK  205  A    between atoms: _501  and  _503
REMARK  206  A    between atoms: _503  and  _504
REMARK  207  A    between atoms: _503  and  _512
REMARK  208  A    between atoms: _504  and  _505
REMARK  209  A    between atoms: _505  and  _506
REMARK  210  A    between atoms: _506  and  _507
REMARK  211  A    between atoms: _507  and  _508
REMARK  212  A    between atoms: _514  and  _516
REMARK  213  A    between atoms: _516  and  _517
REMARK  214  A    between atoms: _516  and  _519
REMARK  215  A    between atoms: _519  and  _520
REMARK  216  A    between atoms: _525  and  _527
REMARK  217  A    between atoms: _527  and  _528
REMARK  218  A    between atoms: _527  and  _530
REMARK  219  A    between atoms: _530  and  _531
REMARK  220  A    between atoms: _531  and  _532
REMARK  221  A    between atoms: _534  and  _536
REMARK  222  A    between atoms: _536  and  _537
REMARK  223  A    between atoms: _540  and  _542
REMARK  224  A    between atoms: _542  and  _543
REMARK  225  A    between atoms: _542  and  _545
REMARK  226  A    between atoms: _548  and  _550
REMARK  227  A    between atoms: _550  and  _551
REMARK  228  A    between atoms: _550  and  _553
REMARK  229  A    between atoms: _553  and  _554
REMARK  230  A    between atoms: _554  and  _555
REMARK  231  A    between atoms: _560  and  _562
REMARK  232  A    between atoms: _562  and  _563
REMARK  233  A    between atoms: _562  and  _565
REMARK  234  A    between atoms: _565  and  _566
REMARK                            x       y       z     vdW  Elec       q    Type
REMARK                         _______ _______ _______ _____ _____    ______ ____
ROOT
ATOM      1  CG  TYR A   1      45.092 -44.047 -11.330  0.00  0.00    -0.020 A 
ATOM      2  CD2 TYR A   1      44.191 -44.189 -10.276  0.00  0.00    -0.001 A 
ATOM      3  CE2 TYR A   1      43.263 -45.217 -10.256  0.00  0.00    +0.036 A 
ATOM      4  CZ  TYR A   1      43.232 -46.131 -11.294  0.00  0.00    +0.134 A 
ATOM      5  CE1 TYR A   1      44.122 -46.019 -12.348  0.00  0.00    +0.036 A 
ATOM      6  CD1 TYR A   1      45.043 -44.983 -12.364  0.00  0.00    -0.001 A 
ENDROOT
BRANCH   4   7
ATOM      7  OH  TYR A   1      42.310 -47.157 -11.276  0.00  0.00    -0.506 OA
ATOM      8  HH  TYR A   1      41.757 -47.088 -10.458  0.00  0.00    +0.292 HD
ENDBRANCH   4   7
BRANCH   1   9
ATOM      9  CB  TYR A   1      46.106 -42.916 -11.343  0.00  0.00    +0.051 C 
BRANCH   9  10
ATOM     10  CA  TYR A   1      45.497 -41.532 -11.640  0.00  0.00    +0.137 C 
BRANCH  10  11
ATOM     11  N   TYR A   1      44.914 -41.504 -12.975  0.00  0.00    -0.239 NA
ATOM     12  H   TYR A   1      45.372 -42.037 -13.741  0.00  0.00    +0.142 HD
ENDBRANCH  10  11
BRANCH  10  13
ATOM     13  C   TYR A   1      46.536 -40.416 -11.457  0.00  0.00    +0.224 C 
ATOM     14  O   TYR A   1      47.353 -40.153 -12.345  0.00  0.00    -0.287 OA
ENDBRANCH  10  13
ENDBRANCH   9  10
ENDBRANCH   1   9
TORSDOF 5
REMARK  Name = ../refined-set-2016/4fut/4fut_pocket.pdb
REMARK  234 active torsions:
REMARK  status: ('A' for Active; 'I' for Inactive)
REMARK    1  A    between atoms: _1  and  _3
REMARK    2  A    between atoms: _3  and  _4
REMARK    3  A    between atoms: _3  and  _6
REMARK    4  A    between atoms: _6  and  _7
REMARK    5  A    between atoms: _12  and  _13
REMARK    6  A    between atoms: _15  and  _17
REMARK    7  A    between atoms: _17  and  _18
REMARK    8  A    between atoms: _17  and  _20
REMARK    9  A    between atoms: _20  and  _21
REMARK   10  A    between atoms: _24  and  _26
REMARK   11  A    between atoms: _26  and  _27
REMARK   12  A    between atoms: _26  and  _29
REMARK   13  A    between atoms: _29  and  _30
REMARK   14  A    between atoms: _35  and  _36
REMARK   15  A    between atoms: _38  and  _40
REMARK   16  A    between atoms: _40  and  _41
REMARK   17  A    between atoms: _40  and  _43
REMARK   18  A    between atoms: _43  and  _44
REMARK   19  A    between atoms: _47  and  _49
REMARK   20  A    between atoms: _49  and  _50
REMARK   21  A    between atoms: _49  and  _52
REMARK   22  A    between atoms: _52  and  _53
REMARK   23  A    between atoms: _55  and  _57
REMARK   24  A    between atoms: _57  and  _58
REMARK   25  A    between atoms: _60  and  _62
REMARK   26  A    between atoms: _62  and  _63
REMARK   27  A    between atoms: _62  and  _65
REMARK   28  A    between atoms: _65  and  _66
REMARK   29  A    between atoms: _69  and  _71
REMARK   30  A    between atoms: _71  and  _72
REMARK   31  A    between atoms: _71  and  _74
REMARK   32  A    between atoms: _74  and  _75
REMARK   33  A    between atoms: _78  and  _80
REMARK   34  A    between atoms: _80  and  _81
REMARK   35  A    between atoms: _83  and  _85
REMARK   36  A    between atoms: _85  and  _86
REMARK   37  A    between atoms: _85  and  _88
REMARK   38  A    between atoms: _88  and  _89
REMARK   39  A    between atoms: _89  and  _90
REMARK   40  A    between atoms: _90  and  _91
REMARK   41  A    between atoms: _100  and  _102
REMARK   42  A    between atoms: _102  and  _103
REMARK   43  A    between atoms: _102  and  _105
REMARK   44  A    between atoms: _105  and  _106
REMARK   45  A    between atoms: _108  and  _110
REMARK   46  A    between atoms: _110  and  _111
REMARK   47  A    between atoms: _110  and  _119
REMARK   48  A    between atoms: _111  and  _112
REMARK   49  A    between atoms: _112  and  _113
REMARK   50  A    between atoms: _113  and  _114
REMARK   51  A    between atoms: _114  and  _115
REMARK   52  A    between atoms: _121  and  _123
REMARK   53  A    between atoms: _123  and  _124
REMARK   54  A    between atoms: _123  and  _126
REMARK   55  A    between atoms: _126  and  _127
REMARK   56  A    between atoms: _132  and  _134
REMARK   57  A    between atoms: _134  and  _135
REMARK   58  A    between atoms: _134  and  _137
REMARK   59  A    between atoms: _137  and  _138
REMARK   60  A    between atoms: _141  and  _143
REMARK   61  A    between atoms: _143  and  _144
REMARK   62  A    between atoms: _143  and  _146
REMARK   63  A    between atoms: _146  and  _147
REMARK   64  A    between atoms: _153  and  _154
REMARK   65  A    between atoms: _159  and  _161
REMARK   66  A    between atoms: _161  and  _162
REMARK   67  A    between atoms: _161  and  _164
REMARK   68  A    between atoms: _164  and  _165
REMARK   69  A    between atoms: _167  and  _169
REMARK   70  A    between atoms: _169  and  _170
REMARK   71  A    between atoms: _172  and  _174
REMARK   72  A    between atoms: _174  and  _175
REMARK   73  A    between atoms: _174  and  _177
REMARK   74  A    between atoms: _177  and  _178
REMARK   75  A    between atoms: _180  and  _182
REMARK   76  A    between atoms: _182  and  _183
REMARK   77  A    between atoms: _187  and  _188
REMARK   78  A    between atoms: _193  and  _195
REMARK   79  A    between atoms: _195  and  _196
REMARK   80  A    between atoms: _195  and  _198
REMARK   81  A    between atoms: _198  and  _199
REMARK   82  A    between atoms: _202  and  _204
REMARK   83  A    between atoms: _204  and  _205
REMARK   84  A    between atoms: _204  and  _207
REMARK   85  A    between atoms: _207  and  _208
REMARK   86  A    between atoms: _211  and  _213
REMARK   87  A    between atoms: _213  and  _214
REMARK   88  A    between atoms: _213  and  _216
REMARK   89  A    between atoms: _216  and  _217
REMARK   90  A    between atoms: _217  and  _218
REMARK   91  A    between atoms: _221  and  _223
REMARK   92  A    between atoms: _223  and  _224
REMARK   93  A    between atoms: _223  and  _226
REMARK   94  A    between atoms: _226  and  _227
REMARK   95  A    between atoms: _227  and  _228
REMARK   96  A    between atoms: _228  and  _229
REMARK   97  A    between atoms: _238  and  _240
REMARK   98  A    between atoms: _240  and  _241
REMARK   99  A    between atoms: _240  and  _243
REMARK  100  A    between atoms: _243  and  _244
REMARK  101  A    between atoms: _249  and  _250
REMARK  102  A    between atoms: _252  and  _254
REMARK  103  A    between atoms: _254  and  _255
REMARK  104  A    between atoms: _257  and  _259
REMARK  105  A    between atoms: _259  and  _260
REMARK  106  A    between atoms: _259  and  _262
REMARK  107  A    between atoms: _262  and  _263
REMARK  108  A    between atoms: _263  and  _264
REMARK  109  A    between atoms: _266  and  _268
REMARK  110  A    between atoms: _268  and  _269
REMARK  111  A    between atoms: _268  and  _271
REMARK  112  A    between atoms: _271  and  _272
REMARK  113  A    between atoms: _275  and  _277
REMARK  114  A    between atoms: _277  and  _278
REMARK  115  A    between atoms: _277  and  _280
REMARK  116  A    between atoms: _280  and  _281
REMARK  117  A    between atoms: _281  and  _282
REMARK  118  A    between atoms: _285  and  _287
REMARK  119  A    between atoms: _287  and  _288
REMARK  120  A    between atoms: _287  and  _290
REMARK  121  A    between atoms: _290  and  _291
REMARK  122  A    between atoms: _294  and  _296
REMARK  123  A    between atoms: _296  and  _297
REMARK  124  A    between atoms: _296  and  _299
REMARK  125  A    between atoms: _299  and  _300
REMARK  126  A    between atoms: _305  and  _307
REMARK  127  A    between atoms: _307  and  _308
REMARK  128  A    between atoms: _307  and  _310
REMARK  129  A    between atoms: _310  and  _311
REMARK  130  A    between atoms: _311  and  _312
REMARK  131  A    between atoms: _314  and  _316
REMARK  132  A    between atoms: _316  and  _317
REMARK  133  A    between atoms: _316  and  _319
REMARK  134  A    between atoms: _319  and  _320
REMARK  135  A    between atoms: _325  and  _327
REMARK  136  A    between atoms: _327  and  _328
REMARK  137  A    between atoms: _327  and  _330
REMARK  138  A    between atoms: _330  and  _331
REMARK  139  A    between atoms: _334  and  _336
REMARK  140  A    between atoms: _336  and  _337
REMARK  141  A    between atoms: _336  and  _339
REMARK  142  A    between atoms: _339  and  _340
REMARK  143  A    between atoms: _345  and  _347
REMARK  144  A    between atoms: _347  and  _348
REMARK  145  A    between atoms: _350  and  _352
REMARK  146  A    between atoms: _352  and  _353
REMARK  147  A    between atoms: _356  and  _358
REMARK  148  A    between atoms: _358  and  _359
REMARK  149  A    between atoms: _358  and  _361
REMARK  150  A    between atoms: _364  and  _366
REMARK  151  A    between atoms: _366  and  _367
REMARK  152  A    between atoms: _369  and  _371
REMARK  153  A    between atoms: _371  and  _372
REMARK  154  A    between atoms: _371  and  _374
REMARK  155  A    between atoms: _374  and  _375
REMARK  156  A    between atoms: _380  and  _381
REMARK  157  A    between atoms: _383  and  _385
REMARK  158  A    between atoms: _385  and  _386
REMARK  159  A    between atoms: _385  and  _388
REMARK  160  A    between atoms: _388  and  _389
REMARK  161  A    between atoms: _395  and  _397
REMARK  162  A    between atoms: _397  and  _398
REMARK  163  A    between atoms: _397  and  _400
REMARK  164  A    between atoms: _400  and  _401
REMARK  165  A    between atoms: _404  and  _406
REMARK  166  A    between atoms: _406  and  _407
REMARK  167  A    between atoms: _406  and  _409
REMARK  168  A    between atoms: _409  and  _410
REMARK  169  A    between atoms: _413  and  _415
REMARK  170  A    between atoms: _415  and  _416
REMARK  171  A    between atoms: _418  and  _420
REMARK  172  A    between atoms: _420  and  _421
REMARK  173  A    between atoms: _420  and  _423
REMARK  174  A    between atoms: _423  and  _424
REMARK  175  A    between atoms: _427  and  _429
REMARK  176  A    between atoms: _429  and  _430
REMARK  177  A    between atoms: _429  and  _432
REMARK  178  A    between atoms: _432  and  _433
REMARK  179  A    between atoms: _436  and  _438
REMARK  180  A    between atoms: _438  and  _439
REMARK  181  A    between atoms: _438  and  _441
REMARK  182  A    between atoms: _441  and  _442
REMARK  183  A    between atoms: _447  and  _449
REMARK  184  A    between atoms: _449  and  _450
REMARK  185  A    between atoms: _449  and  _452
REMARK  186  A    between atoms: _452  and  _453
REMARK  187  A    between atoms: _456  and  _458
REMARK  188  A    between atoms: _458  and  _459
REMARK  189  A    between atoms: _458  and  _461
REMARK  190  A    between atoms: _461  and  _462
REMARK  191  A    between atoms: _465  and  _467
REMARK  192  A    between atoms: _467  and  _468
REMARK  193  A    between atoms: _470  and  _472
REMARK  194  A    between atoms: _472  and  _473
REMARK  195  A    between atoms: _472  and  _475
REMARK  196  A    between atoms: _475  and  _476
REMARK  197  A    between atoms: _476  and  _477
REMARK  198  A    between atoms: _477  and  _478
REMARK  199  A    between atoms: _487  and  _489
REMARK  200  A    between atoms: _489  and  _490
REMARK  201  A    between atoms: _492  and  _494
REMARK  202  A    between atoms: _494  and  _495
REMARK  203  A    between atoms: _494  and  _497
REMARK  204  A    between atoms: _497  and  _498
REMARK  205  A    between atoms: _501  and  _503
REMARK  206  A    between atoms: _503  and  _504
REMARK  207  A    between atoms: _503  and  _512
REMARK  208  A    between atoms: _504  and  _505
REMARK  209  A    between atoms: _505  and  _506
REMARK  210  A    between atoms: _506  and  _507
REMARK  211  A    between atoms: _507  and  _508
REMARK  212  A    between atoms: _514  and  _516
REMARK  213  A    between atoms: _516  and  _517
REMARK  214  A    between atoms: _516  and  _519
REMARK  215  A    between atoms: _519  and  _520
REMARK  216  A    between atoms: _525  and  _527
REMARK  217  A    between atoms: _527  and  _528
REMARK  218  A    between atoms: _527  and  _530
REMARK  219  A    between atoms: _530  and  _531
REMARK  220  A    between atoms: _531  and  _532
REMARK  221  A    between atoms: _534  and  _536
REMARK  222  A    between atoms: _536  and  _537
REMARK  223  A    between atoms: _540  and  _542
REMARK  224  A    between atoms: _542  and  _543
REMARK  225  A    between atoms: _542  and  _545
REMARK  226  A    between atoms: _548  and  _550
REMARK  227  A    between atoms: _550  and  _551
REMARK  228  A    between atoms: _550  and  _553
REMARK  229  A    between atoms: _553  and  _554
REMARK  230  A    between atoms: _554  and  _555
REMARK  231  A    between atoms: _560  and  _562
REMARK  232  A    between atoms: _562  and  _563
REMARK  233  A    between atoms: _562  and  _565
REMARK  234  A    between atoms: _565  and  _566
REMARK                            x       y       z     vdW  Elec       q    Type
REMARK                         _______ _______ _______ _____ _____    ______ ____
ROOT
ATOM      1  CA  THR A   3      36.985 -51.860 -14.030  0.00  0.00    +0.176 C 
ENDROOT
BRANCH   1   4
ATOM      2  C   ILE A   2      38.548 -51.529 -15.845  0.00  0.00    +0.241 C 
ATOM      3  O   ILE A   2      39.359 -51.055 -15.061  0.00  0.00    -0.273 OA
ATOM      4  N   THR A   3      37.377 -52.010 -15.434  0.00  0.00    -0.295 N 
ATOM      5  H   THR A   3      36.744 -52.490 -16.105  0.00  0.00    +0.150 HD
BRANCH   2   6
ATOM      6  CA  ILE A   2      38.846 -51.548 -17.351  0.00  0.00    +0.148 C 
BRANCH   6   8
ATOM      7  C   PHE A   1      37.781 -49.485 -18.118  0.00  0.00    +0.239 C 
ATOM      8  N   ILE A   2      38.884 -50.180 -17.857  0.00  0.00    -0.297 N 
ATOM      9  H   ILE A   2      39.808 -49.732 -18.020  0.00  0.00    +0.150 HD
ATOM     10  O   PHE A   1      36.645 -49.951 -17.995  0.00  0.00    -0.274 OA
BRANCH   7  11
ATOM     11  CA  PHE A   1      37.993 -48.047 -18.586  0.00  0.00    +0.149 C 
BRANCH  11  12
ATOM     12  N   PHE A   1      37.215 -47.791 -19.801  0.00  0.00    -0.238 NA
ATOM     13  H   PHE A   1      36.224 -47.490 -19.701  0.00  0.00    +0.142 HD
ENDBRANCH  11  12
BRANCH  11  14
ATOM     14  CB  PHE A   1      37.578 -47.058 -17.482  0.00  0.00    +0.053 C 
BRANCH  14  15
ATOM     15  CG  PHE A   1      38.200 -47.336 -16.129  0.00  0.00    -0.020 A 
ATOM     16  CD2 PHE A   1      37.407 -47.717 -15.053  0.00  0.00    -0.004 A 
ATOM     17  CE2 PHE A   1      37.967 -47.969 -13.803  0.00  0.00    -0.000 A 
ATOM     18  CZ  PHE A   1      39.336 -47.832 -13.618  0.00  0.00    -0.000 A 
ATOM     19  CE1 PHE A   1      40.134 -47.448 -14.683  0.00  0.00    -0.000 A 
ATOM     20  CD1 PHE A   1      39.566 -47.195 -15.928  0.00  0.00    -0.004 A 
ENDBRANCH  14  15
ENDBRANCH  11  14
ENDBRANCH   7  11
ENDBRANCH   6   8
BRANCH   6  21
ATOM     21  CB  ILE A   2      40.202 -52.241 -17.627  0.00  0.00    +0.027 C 
ATOM     22  CG2 ILE A   2      40.249 -53.626 -16.999  0.00  0.00    +0.002 C 
BRANCH  21  23
ATOM     23  CG1 ILE A   2      40.461 -52.289 -19.140  0.00  0.00    +0.002 C 
ATOM     24  CD1 ILE A   2      41.878 -52.693 -19.524  0.00  0.00    +0.000 C 
ENDBRANCH  21  23
ENDBRANCH   6  21
ENDBRANCH   2   6
ENDBRANCH   1   4
BRANCH   1  25
ATOM     25  C   THR A   3      37.795 -52.765 -13.117  0.00  0.00    +0.243 C 
ATOM     26  O   THR A   3      38.034 -52.429 -11.962  0.00  0.00    -0.273 OA
ATOM     27  N   GLY A   4      38.223 -53.907 -13.649  0.00  0.00    -0.295 N 
ATOM     28  H   GLY A   4      38.088 -54.073 -14.667  0.00  0.00    +0.150 HD
BRANCH  27  29
ATOM     29  CA  GLY A   4      38.873 -54.926 -12.847  0.00  0.00    +0.176 C 
BRANCH  29  30
ATOM     30  C   GLY A   4      37.836 -55.824 -12.199  0.00  0.00    +0.243 C 
ATOM     31  O   GLY A   4      38.175 -56.718 -11.436  0.00  0.00    -0.273 OA
ATOM     32  N   ASP A   5      36.565 -55.575 -12.506  0.00  0.00    -0.296 N 
ATOM     33  H   ASP A   5      36.349 -54.769 -13.127  0.00  0.00    +0.150 HD
BRANCH  32  34
ATOM     34  CA  ASP A   5      35.459 -56.393 -12.002  0.00  0.00    +0.160 C 
BRANCH  34  35
ATOM     35  C   ASP A   5      34.982 -57.364 -13.075  0.00  0.00    +0.241 C 
ATOM     36  N   LEU A   6      34.817 -58.633 -12.709  0.00  0.00    -0.298 N 
ATOM     37  H   LEU A   6      35.066 -58.917 -11.740  0.00  0.00    +0.150 HD
ATOM     38  O   ASP A   5      34.760 -56.963 -14.214  0.00  0.00    -0.273 OA
BRANCH  36  39
ATOM     39  CA  LEU A   6      34.295 -59.638 -13.632  0.00  0.00    +0.137 C 
BRANCH  39  40
ATOM     40  C   LEU A   6      32.781 -59.740 -13.531  0.00  0.00    +0.227 C 
ATOM     41  O   LEU A   6      32.225 -59.634 -12.445  0.00  0.00    -0.286 OA
ENDBRANCH  39  40
BRANCH  39  42
ATOM     42  CB  LEU A   6      34.922 -61.006 -13.347  0.00  0.00    +0.028 C 
BRANCH  42  43
ATOM     43  CG  LEU A   6      36.443 -61.076 -13.489  0.00  0.00    +0.002 C 
ATOM     44  CD2 LEU A   6      36.960 -62.484 -13.164  0.00  0.00    +0.000 C 
ATOM     45  CD1 LEU A   6      36.864 -60.664 -14.905  0.00  0.00    +0.000 C 
ENDBRANCH  42  43
ENDBRANCH  39  42
ENDBRANCH  36  39
ENDBRANCH  34  35
BRANCH  34  46
ATOM     46  CB  ASP A   5      34.281 -55.493 -11.592  0.00  0.00    +0.143 C 
BRANCH  46  47
ATOM     47  CG  ASP A   5      34.591 -54.649 -10.362  0.00  0.00    +0.367 C 
ATOM     48  OD2 ASP A   5      35.242 -55.172  -9.439  0.00  0.00    -0.246 OA
ATOM     49  OD1 ASP A   5      34.179 -53.470 -10.322  0.00  0.00    -0.246 OA
ENDBRANCH  46  47
ENDBRANCH  34  46
ENDBRANCH  32  34
ENDBRANCH  29  30
ENDBRANCH  27  29
ENDBRANCH   1  25
BRANCH   1  50
ATOM     50  CB  THR A   3      35.497 -52.158 -13.798  0.00  0.00    +0.137 C 
ATOM     51  CG2 THR A   3      34.622 -51.252 -14.665  0.00  0.00    +0.034 C 
BRANCH  50  52
ATOM     52  OG1 THR A   3      35.229 -53.533 -14.111  0.00  0.00    -0.382 OA
ATOM     53  HG1 THR A   3      35.456 -53.705 -15.059  0.00  0.00    +0.210 HD
ENDBRANCH  50  52
ENDBRANCH   1  50
TORSDOF 22
REMARK  Name = ../refined-set-2016/4fut/4fut_pocket.pdb
REMARK  234 active torsions:
REMARK  status: ('A' for Active; 'I' for Inactive)
REMARK    1  A    between atoms: _1  and  _3
REMARK    2  A    between atoms: _3  and  _4
REMARK    3  A    between atoms: _3  and  _6
REMARK    4  A    between atoms: _6  and  _7
REMARK    5  A    between atoms: _12  and  _13
REMARK    6  A    between atoms: _15  and  _17
REMARK    7  A    between atoms: _17  and  _18
REMARK    8  A    between atoms: _17  and  _20
REMARK    9  A    between atoms: _20  and  _21
REMARK   10  A    between atoms: _24  and  _26
REMARK   11  A    between atoms: _26  and  _27
REMARK   12  A    between atoms: _26  and  _29
REMARK   13  A    between atoms: _29  and  _30
REMARK   14  A    between atoms: _35  and  _36
REMARK   15  A    between atoms: _38  and  _40
REMARK   16  A    between atoms: _40  and  _41
REMARK   17  A    between atoms: _40  and  _43
REMARK   18  A    between atoms: _43  and  _44
REMARK   19  A    between atoms: _47  and  _49
REMARK   20  A    between atoms: _49  and  _50
REMARK   21  A    between atoms: _49  and  _52
REMARK   22  A    between atoms: _52  and  _53
REMARK   23  A    between atoms: _55  and  _57
REMARK   24  A    between atoms: _57  and  _58
REMARK   25  A    between atoms: _60  and  _62
REMARK   26  A    between atoms: _62  and  _63
REMARK   27  A    between atoms: _62  and  _65
REMARK   28  A    between atoms: _65  and  _66
REMARK   29  A    between atoms: _69  and  _71
REMARK   30  A    between atoms: _71  and  _72
REMARK   31  A    between atoms: _71  and  _74
REMARK   32  A    between atoms: _74  and  _75
REMARK   33  A    between atoms: _78  and  _80
REMARK   34  A    between atoms: _80  and  _81
REMARK   35  A    between atoms: _83  and  _85
REMARK   36  A    between atoms: _85  and  _86
REMARK   37  A    between atoms: _85  and  _88
REMARK   38  A    between atoms: _88  and  _89
REMARK   39  A    between atoms: _89  and  _90
REMARK   40  A    between atoms: _90  and  _91
REMARK   41  A    between atoms: _100  and  _102
REMARK   42  A    between atoms: _102  and  _103
REMARK   43  A    between atoms: _102  and  _105
REMARK   44  A    between atoms: _105  and  _106
REMARK   45  A    between atoms: _108  and  _110
REMARK   46  A    between atoms: _110  and  _111
REMARK   47  A    between atoms: _110  and  _119
REMARK   48  A    between atoms: _111  and  _112
REMARK   49  A    between atoms: _112  and  _113
REMARK   50  A    between atoms: _113  and  _114
REMARK   51  A    between atoms: _114  and  _115
REMARK   52  A    between atoms: _121  and  _123
REMARK   53  A    between atoms: _123  and  _124
REMARK   54  A    between atoms: _123  and  _126
REMARK   55  A    between atoms: _126  and  _127
REMARK   56  A    between atoms: _132  and  _134
REMARK   57  A    between atoms: _134  and  _135
REMARK   58  A    between atoms: _134  and  _137
REMARK   59  A    between atoms: _137  and  _138
REMARK   60  A    between atoms: _141  and  _143
REMARK   61  A    between atoms: _143  and  _144
REMARK   62  A    between atoms: _143  and  _146
REMARK   63  A    between atoms: _146  and  _147
REMARK   64  A    between atoms: _153  and  _154
REMARK   65  A    between atoms: _159  and  _161
REMARK   66  A    between atoms: _161  and  _162
REMARK   67  A    between atoms: _161  and  _164
REMARK   68  A    between atoms: _164  and  _165
REMARK   69  A    between atoms: _167  and  _169
REMARK   70  A    between atoms: _169  and  _170
REMARK   71  A    between atoms: _172  and  _174
REMARK   72  A    between atoms: _174  and  _175
REMARK   73  A    between atoms: _174  and  _177
REMARK   74  A    between atoms: _177  and  _178
REMARK   75  A    between atoms: _180  and  _182
REMARK   76  A    between atoms: _182  and  _183
REMARK   77  A    between atoms: _187  and  _188
REMARK   78  A    between atoms: _193  and  _195
REMARK   79  A    between atoms: _195  and  _196
REMARK   80  A    between atoms: _195  and  _198
REMARK   81  A    between atoms: _198  and  _199
REMARK   82  A    between atoms: _202  and  _204
REMARK   83  A    between atoms: _204  and  _205
REMARK   84  A    between atoms: _204  and  _207
REMARK   85  A    between atoms: _207  and  _208
REMARK   86  A    between atoms: _211  and  _213
REMARK   87  A    between atoms: _213  and  _214
REMARK   88  A    between atoms: _213  and  _216
REMARK   89  A    between atoms: _216  and  _217
REMARK   90  A    between atoms: _217  and  _218
REMARK   91  A    between atoms: _221  and  _223
REMARK   92  A    between atoms: _223  and  _224
REMARK   93  A    between atoms: _223  and  _226
REMARK   94  A    between atoms: _226  and  _227
REMARK   95  A    between atoms: _227  and  _228
REMARK   96  A    between atoms: _228  and  _229
REMARK   97  A    between atoms: _238  and  _240
REMARK   98  A    between atoms: _240  and  _241
REMARK   99  A    between atoms: _240  and  _243
REMARK  100  A    between atoms: _243  and  _244
REMARK  101  A    between atoms: _249  and  _250
REMARK  102  A    between atoms: _252  and  _254
REMARK  103  A    between atoms: _254  and  _255
REMARK  104  A    between atoms: _257  and  _259
REMARK  105  A    between atoms: _259  and  _260
REMARK  106  A    between atoms: _259  and  _262
REMARK  107  A    between atoms: _262  and  _263
REMARK  108  A    between atoms: _263  and  _264
REMARK  109  A    between atoms: _266  and  _268
REMARK  110  A    between atoms: _268  and  _269
REMARK  111  A    between atoms: _268  and  _271
REMARK  112  A    between atoms: _271  and  _272
REMARK  113  A    between atoms: _275  and  _277
REMARK  114  A    between atoms: _277  and  _278
REMARK  115  A    between atoms: _277  and  _280
REMARK  116  A    between atoms: _280  and  _281
REMARK  117  A    between atoms: _281  and  _282
REMARK  118  A    between atoms: _285  and  _287
REMARK  119  A    between atoms: _287  and  _288
REMARK  120  A    between atoms: _287  and  _290
REMARK  121  A    between atoms: _290  and  _291
REMARK  122  A    between atoms: _294  and  _296
REMARK  123  A    between atoms: _296  and  _297
REMARK  124  A    between atoms: _296  and  _299
REMARK  125  A    between atoms: _299  and  _300
REMARK  126  A    between atoms: _305  and  _307
REMARK  127  A    between atoms: _307  and  _308
REMARK  128  A    between atoms: _307  and  _310
REMARK  129  A    between atoms: _310  and  _311
REMARK  130  A    between atoms: _311  and  _312
REMARK  131  A    between atoms: _314  and  _316
REMARK  132  A    between atoms: _316  and  _317
REMARK  133  A    between atoms: _316  and  _319
REMARK  134  A    between atoms: _319  and  _320
REMARK  135  A    between atoms: _325  and  _327
REMARK  136  A    between atoms: _327  and  _328
REMARK  137  A    between atoms: _327  and  _330
REMARK  138  A    between atoms: _330  and  _331
REMARK  139  A    between atoms: _334  and  _336
REMARK  140  A    between atoms: _336  and  _337
REMARK  141  A    between atoms: _336  and  _339
REMARK  142  A    between atoms: _339  and  _340
REMARK  143  A    between atoms: _345  and  _347
REMARK  144  A    between atoms: _347  and  _348
REMARK  145  A    between atoms: _350  and  _352
REMARK  146  A    between atoms: _352  and  _353
REMARK  147  A    between atoms: _356  and  _358
REMARK  148  A    between atoms: _358  and  _359
REMARK  149  A    between atoms: _358  and  _361
REMARK  150  A    between atoms: _364  and  _366
REMARK  151  A    between atoms: _366  and  _367
REMARK  152  A    between atoms: _369  and  _371
REMARK  153  A    between atoms: _371  and  _372
REMARK  154  A    between atoms: _371  and  _374
REMARK  155  A    between atoms: _374  and  _375
REMARK  156  A    between atoms: _380  and  _381
REMARK  157  A    between atoms: _383  and  _385
REMARK  158  A    between atoms: _385  and  _386
REMARK  159  A    between atoms: _385  and  _388
REMARK  160  A    between atoms: _388  and  _389
REMARK  161  A    between atoms: _395  and  _397
REMARK  162  A    between atoms: _397  and  _398
REMARK  163  A    between atoms: _397  and  _400
REMARK  164  A    between atoms: _400  and  _401
REMARK  165  A    between atoms: _404  and  _406
REMARK  166  A    between atoms: _406  and  _407
REMARK  167  A    between atoms: _406  and  _409
REMARK  168  A    between atoms: _409  and  _410
REMARK  169  A    between atoms: _413  and  _415
REMARK  170  A    between atoms: _415  and  _416
REMARK  171  A    between atoms: _418  and  _420
REMARK  172  A    between atoms: _420  and  _421
REMARK  173  A    between atoms: _420  and  _423
REMARK  174  A    between atoms: _423  and  _424
REMARK  175  A    between atoms: _427  and  _429
REMARK  176  A    between atoms: _429  and  _430
REMARK  177  A    between atoms: _429  and  _432
REMARK  178  A    between atoms: _432  and  _433
REMARK  179  A    between atoms: _436  and  _438
REMARK  180  A    between atoms: _438  and  _439
REMARK  181  A    between atoms: _438  and  _441
REMARK  182  A    between atoms: _441  and  _442
REMARK  183  A    between atoms: _447  and  _449
REMARK  184  A    between atoms: _449  and  _450
REMARK  185  A    between atoms: _449  and  _452
REMARK  186  A    between atoms: _452  and  _453
REMARK  187  A    between atoms: _456  and  _458
REMARK  188  A    between atoms: _458  and  _459
REMARK  189  A    between atoms: _458  and  _461
REMARK  190  A    between atoms: _461  and  _462
REMARK  191  A    between atoms: _465  and  _467
REMARK  192  A    between atoms: _467  and  _468
REMARK  193  A    between atoms: _470  and  _472
REMARK  194  A    between atoms: _472  and  _473
REMARK  195  A    between atoms: _472  and  _475
REMARK  196  A    between atoms: _475  and  _476
REMARK  197  A    between atoms: _476  and  _477
REMARK  198  A    between atoms: _477  and  _478
REMARK  199  A    between atoms: _487  and  _489
REMARK  200  A    between atoms: _489  and  _490
REMARK  201  A    between atoms: _492  and  _494
REMARK  202  A    between atoms: _494  and  _495
REMARK  203  A    between atoms: _494  and  _497
REMARK  204  A    between atoms: _497  and  _498
REMARK  205  A    between atoms: _501  and  _503
REMARK  206  A    between atoms: _503  and  _504
REMARK  207  A    between atoms: _503  and  _512
REMARK  208  A    between atoms: _504  and  _505
REMARK  209  A    between atoms: _505  and  _506
REMARK  210  A    between atoms: _506  and  _507
REMARK  211  A    between atoms: _507  and  _508
REMARK  212  A    between atoms: _514  and  _516
REMARK  213  A    between atoms: _516  and  _517
REMARK  214  A    between atoms: _516  and  _519
REMARK  215  A    between atoms: _519  and  _520
REMARK  216  A    between atoms: _525  and  _527
REMARK  217  A    between atoms: _527  and  _528
REMARK  218  A    between atoms: _527  and  _530
REMARK  219  A    between atoms: _530  and  _531
REMARK  220  A    between atoms: _531  and  _532
REMARK  221  A    between atoms: _534  and  _536
REMARK  222  A    between atoms: _536  and  _537
REMARK  223  A    between atoms: _540  and  _542
REMARK  224  A    between atoms: _542  and  _543
REMARK  225  A    between atoms: _542  and  _545
REMARK  226  A    between atoms: _548  and  _550
REMARK  227  A    between atoms: _550  and  _551
REMARK  228  A    between atoms: _550  and  _553
REMARK  229  A    between atoms: _553  and  _554
REMARK  230  A    between atoms: _554  and  _555
REMARK  231  A    between atoms: _560  and  _562
REMARK  232  A    between atoms: _562  and  _563
REMARK  233  A    between atoms: _562  and  _565
REMARK  234  A    between atoms: _565  and  _566
REMARK                            x       y       z     vdW  Elec       q    Type
REMARK                         _______ _______ _______ _____ _____    ______ ____
ROOT
ATOM      1  C   LEU A   3      31.699 -61.967  -9.197  0.00  0.00    +0.241 C 
ATOM      2  O   LEU A   3      31.774 -62.806  -8.309  0.00  0.00    -0.273 OA
ATOM      3  N   GLY A   4      32.558 -60.962  -9.313  0.00  0.00    -0.295 N 
ATOM      4  H   GLY A   4      32.447 -60.283 -10.093  0.00  0.00    +0.150 HD
ENDROOT
BRANCH   3   5
ATOM      5  CA  GLY A   4      33.649 -60.792  -8.373  0.00  0.00    +0.176 C 
BRANCH   5   6
ATOM      6  C   GLY A   4      34.735 -59.911  -8.950  0.00  0.00    +0.243 C 
ATOM      7  N   ARG A   5      35.742 -59.611  -8.142  0.00  0.00    -0.297 N 
ATOM      8  H   ARG A   5      35.702 -59.892  -7.141  0.00  0.00    +0.150 HD
ATOM      9  O   GLY A   4      34.665 -59.498 -10.107  0.00  0.00    -0.273 OA
BRANCH   7  10
ATOM     10  CA  ARG A   5      36.900 -58.894  -8.642  0.00  0.00    +0.149 C 
BRANCH  10  11
ATOM     11  C   ARG A   5      37.752 -59.877  -9.441  0.00  0.00    +0.241 C 
ATOM     12  O   ARG A   5      37.774 -61.078  -9.137  0.00  0.00    -0.273 OA
ATOM     13  N   GLY A   6      38.452 -59.379 -10.458  0.00  0.00    -0.296 N 
ATOM     14  H   GLY A   6      38.352 -58.374 -10.705  0.00  0.00    +0.150 HD
BRANCH  13  15
ATOM     15  CA  GLY A   6      39.360 -60.223 -11.234  0.00  0.00    +0.163 C 
BRANCH  15  16
ATOM     16  C   GLY A   6      40.309 -61.025 -10.353  0.00  0.00    +0.229 C 
ATOM     17  O   GLY A   6      40.594 -62.193 -10.631  0.00  0.00    -0.286 OA
ENDBRANCH  15  16
ENDBRANCH  13  15
ENDBRANCH  10  11
BRANCH  10  18
ATOM     18  CB  ARG A   5      37.708 -58.319  -7.482  0.00  0.00    +0.033 C 
BRANCH  18  19
ATOM     19  CG  ARG A   5      36.919 -57.372  -6.572  0.00  0.00    +0.045 C 
BRANCH  19  20
ATOM     20  CD  ARG A   5      37.749 -56.984  -5.355  0.00  0.00    +0.174 C 
BRANCH  20  21
ATOM     21  NE  ARG A   5      37.011 -56.088  -4.457  0.00  0.00    -0.265 N 
ATOM     22  HE  ARG A   5      36.388 -56.521  -3.745  0.00  0.00    +0.259 HD
ATOM     23  CZ  ARG A   5      37.083 -54.761  -4.490  0.00  0.00    +0.342 C 
ATOM     24  NH2 ARG A   5      36.385 -54.042  -3.617  0.00  0.00    -0.292 N 
ATOM     25 HH21 ARG A   5      35.786 -54.518  -2.912  0.00  0.00    +0.255 HD
ATOM     26 HH22 ARG A   5      36.438 -53.004  -3.638  0.00  0.00    +0.255 HD
ATOM     27  NH1 ARG A   5      37.859 -54.152  -5.382  0.00  0.00    -0.292 N 
ATOM     28 HH11 ARG A   5      37.911 -53.114  -5.403  0.00  0.00    +0.255 HD
ATOM     29 HH12 ARG A   5      38.414 -54.714  -6.059  0.00  0.00    +0.255 HD
ENDBRANCH  20  21
ENDBRANCH  19  20
ENDBRANCH  18  19
ENDBRANCH  10  18
ENDBRANCH   7  10
ENDBRANCH   5   6
ENDBRANCH   3   5
BRANCH   1  30
ATOM     30  CA  LEU A   3      30.593 -62.049 -10.240  0.00  0.00    +0.149 C 
BRANCH  30  33
ATOM     31  C   ILE A   2      29.294 -60.010 -10.229  0.00  0.00    +0.241 C 
ATOM     32  O   ILE A   2      28.680 -60.375  -9.224  0.00  0.00    -0.273 OA
ATOM     33  N   LEU A   3      30.244 -60.749 -10.792  0.00  0.00    -0.297 N 
ATOM     34  H   LEU A   3      30.742 -60.395 -11.634  0.00  0.00    +0.150 HD
BRANCH  31  35
ATOM     35  CA  ILE A   2      28.988 -58.669 -10.896  0.00  0.00    +0.148 C 
BRANCH  35  37
ATOM     36  C   HIS A   1      27.196 -58.907 -12.519  0.00  0.00    +0.239 C 
ATOM     37  N   ILE A   2      27.584 -58.576 -11.293  0.00  0.00    -0.297 N 
ATOM     38  H   ILE A   2      26.878 -58.245 -10.604  0.00  0.00    +0.150 HD
ATOM     39  O   HIS A   1      27.986 -59.267 -13.390  0.00  0.00    -0.274 OA
BRANCH  36  40
ATOM     40  CA  HIS A   1      25.706 -58.842 -12.823  0.00  0.00    +0.151 C 
BRANCH  40  41
ATOM     41  N   HIS A   1      25.531 -57.969 -13.979  0.00  0.00    -0.238 NA
ATOM     42  H   HIS A   1      25.999 -58.227 -14.871  0.00  0.00    +0.142 HD
ENDBRANCH  40  41
BRANCH  40  43
ATOM     43  CB  HIS A   1      25.216 -60.261 -13.160  0.00  0.00    +0.074 C 
BRANCH  43  44
ATOM     44  CG  HIS A   1      23.771 -60.331 -13.541  0.00  0.00    +0.082 A 
ATOM     45  ND1 HIS A   1      22.822 -60.939 -12.748  0.00  0.00    -0.227 NA
ATOM     46  CE1 HIS A   1      21.639 -60.845 -13.329  0.00  0.00    +0.199 A 
ATOM     47  NE2 HIS A   1      21.787 -60.199 -14.472  0.00  0.00    -0.221 NA
ATOM     48  CD2 HIS A   1      23.110 -59.861 -14.627  0.00  0.00    +0.115 A 
ENDBRANCH  43  44
ENDBRANCH  40  43
ENDBRANCH  36  40
ENDBRANCH  35  37
BRANCH  35  49
ATOM     49  CB  ILE A   2      29.385 -57.514  -9.955  0.00  0.00    +0.027 C 
ATOM     50  CG2 ILE A   2      30.827 -57.678  -9.476  0.00  0.00    +0.002 C 
BRANCH  49  51
ATOM     51  CG1 ILE A   2      29.196 -56.168 -10.666  0.00  0.00    +0.002 C 
ATOM     52  CD1 ILE A   2      29.366 -54.979  -9.749  0.00  0.00    +0.000 C 
ENDBRANCH  49  51
ENDBRANCH  35  49
ENDBRANCH  31  35
ENDBRANCH  30  33
BRANCH  30  53
ATOM     53  CB  LEU A   3      30.979 -63.033 -11.343  0.00  0.00    +0.029 C 
BRANCH  53  54
ATOM     54  CG  LEU A   3      29.816 -63.878 -11.856  0.00  0.00    +0.002 C 
ATOM     55  CD2 LEU A   3      28.852 -63.023 -12.664  0.00  0.00    +0.000 C 
ATOM     56  CD1 LEU A   3      30.335 -65.030 -12.684  0.00  0.00    +0.000 C 
ENDBRANCH  53  54
ENDBRANCH  30  53
ENDBRANCH   1  30
TORSDOF 22
REMARK  Name = ../refined-set-2016/4fut/4fut_pocket.pdb
REMARK  234 active torsions:
REMARK  status: ('A' for Active; 'I' for Inactive)
REMARK    1  A    between atoms: _1  and  _3
REMARK    2  A    between atoms: _3  and  _4
REMARK    3  A    between atoms: _3  and  _6
REMARK    4  A    between atoms: _6  and  _7
REMARK    5  A    between atoms: _12  and  _13
REMARK    6  A    between atoms: _15  and  _17
REMARK    7  A    between atoms: _17  and  _18
REMARK    8  A    between atoms: _17  and  _20
REMARK    9  A    between atoms: _20  and  _21
REMARK   10  A    between atoms: _24  and  _26
REMARK   11  A    between atoms: _26  and  _27
REMARK   12  A    between atoms: _26  and  _29
REMARK   13  A    between atoms: _29  and  _30
REMARK   14  A    between atoms: _35  and  _36
REMARK   15  A    between atoms: _38  and  _40
REMARK   16  A    between atoms: _40  and  _41
REMARK   17  A    between atoms: _40  and  _43
REMARK   18  A    between atoms: _43  and  _44
REMARK   19  A    between atoms: _47  and  _49
REMARK   20  A    between atoms: _49  and  _50
REMARK   21  A    between atoms: _49  and  _52
REMARK   22  A    between atoms: _52  and  _53
REMARK   23  A    between atoms: _55  and  _57
REMARK   24  A    between atoms: _57  and  _58
REMARK   25  A    between atoms: _60  and  _62
REMARK   26  A    between atoms: _62  and  _63
REMARK   27  A    between atoms: _62  and  _65
REMARK   28  A    between atoms: _65  and  _66
REMARK   29  A    between atoms: _69  and  _71
REMARK   30  A    between atoms: _71  and  _72
REMARK   31  A    between atoms: _71  and  _74
REMARK   32  A    between atoms: _74  and  _75
REMARK   33  A    between atoms: _78  and  _80
REMARK   34  A    between atoms: _80  and  _81
REMARK   35  A    between atoms: _83  and  _85
REMARK   36  A    between atoms: _85  and  _86
REMARK   37  A    between atoms: _85  and  _88
REMARK   38  A    between atoms: _88  and  _89
REMARK   39  A    between atoms: _89  and  _90
REMARK   40  A    between atoms: _90  and  _91
REMARK   41  A    between atoms: _100  and  _102
REMARK   42  A    between atoms: _102  and  _103
REMARK   43  A    between atoms: _102  and  _105
REMARK   44  A    between atoms: _105  and  _106
REMARK   45  A    between atoms: _108  and  _110
REMARK   46  A    between atoms: _110  and  _111
REMARK   47  A    between atoms: _110  and  _119
REMARK   48  A    between atoms: _111  and  _112
REMARK   49  A    between atoms: _112  and  _113
REMARK   50  A    between atoms: _113  and  _114
REMARK   51  A    between atoms: _114  and  _115
REMARK   52  A    between atoms: _121  and  _123
REMARK   53  A    between atoms: _123  and  _124
REMARK   54  A    between atoms: _123  and  _126
REMARK   55  A    between atoms: _126  and  _127
REMARK   56  A    between atoms: _132  and  _134
REMARK   57  A    between atoms: _134  and  _135
REMARK   58  A    between atoms: _134  and  _137
REMARK   59  A    between atoms: _137  and  _138
REMARK   60  A    between atoms: _141  and  _143
REMARK   61  A    between atoms: _143  and  _144
REMARK   62  A    between atoms: _143  and  _146
REMARK   63  A    between atoms: _146  and  _147
REMARK   64  A    between atoms: _153  and  _154
REMARK   65  A    between atoms: _159  and  _161
REMARK   66  A    between atoms: _161  and  _162
REMARK   67  A    between atoms: _161  and  _164
REMARK   68  A    between atoms: _164  and  _165
REMARK   69  A    between atoms: _167  and  _169
REMARK   70  A    between atoms: _169  and  _170
REMARK   71  A    between atoms: _172  and  _174
REMARK   72  A    between atoms: _174  and  _175
REMARK   73  A    between atoms: _174  and  _177
REMARK   74  A    between atoms: _177  and  _178
REMARK   75  A    between atoms: _180  and  _182
REMARK   76  A    between atoms: _182  and  _183
REMARK   77  A    between atoms: _187  and  _188
REMARK   78  A    between atoms: _193  and  _195
REMARK   79  A    between atoms: _195  and  _196
REMARK   80  A    between atoms: _195  and  _198
REMARK   81  A    between atoms: _198  and  _199
REMARK   82  A    between atoms: _202  and  _204
REMARK   83  A    between atoms: _204  and  _205
REMARK   84  A    between atoms: _204  and  _207
REMARK   85  A    between atoms: _207  and  _208
REMARK   86  A    between atoms: _211  and  _213
REMARK   87  A    between atoms: _213  and  _214
REMARK   88  A    between atoms: _213  and  _216
REMARK   89  A    between atoms: _216  and  _217
REMARK   90  A    between atoms: _217  and  _218
REMARK   91  A    between atoms: _221  and  _223
REMARK   92  A    between atoms: _223  and  _224
REMARK   93  A    between atoms: _223  and  _226
REMARK   94  A    between atoms: _226  and  _227
REMARK   95  A    between atoms: _227  and  _228
REMARK   96  A    between atoms: _228  and  _229
REMARK   97  A    between atoms: _238  and  _240
REMARK   98  A    between atoms: _240  and  _241
REMARK   99  A    between atoms: _240  and  _243
REMARK  100  A    between atoms: _243  and  _244
REMARK  101  A    between atoms: _249  and  _250
REMARK  102  A    between atoms: _252  and  _254
REMARK  103  A    between atoms: _254  and  _255
REMARK  104  A    between atoms: _257  and  _259
REMARK  105  A    between atoms: _259  and  _260
REMARK  106  A    between atoms: _259  and  _262
REMARK  107  A    between atoms: _262  and  _263
REMARK  108  A    between atoms: _263  and  _264
REMARK  109  A    between atoms: _266  and  _268
REMARK  110  A    between atoms: _268  and  _269
REMARK  111  A    between atoms: _268  and  _271
REMARK  112  A    between atoms: _271  and  _272
REMARK  113  A    between atoms: _275  and  _277
REMARK  114  A    between atoms: _277  and  _278
REMARK  115  A    between atoms: _277  and  _280
REMARK  116  A    between atoms: _280  and  _281
REMARK  117  A    between atoms: _281  and  _282
REMARK  118  A    between atoms: _285  and  _287
REMARK  119  A    between atoms: _287  and  _288
REMARK  120  A    between atoms: _287  and  _290
REMARK  121  A    between atoms: _290  and  _291
REMARK  122  A    between atoms: _294  and  _296
REMARK  123  A    between atoms: _296  and  _297
REMARK  124  A    between atoms: _296  and  _299
REMARK  125  A    between atoms: _299  and  _300
REMARK  126  A    between atoms: _305  and  _307
REMARK  127  A    between atoms: _307  and  _308
REMARK  128  A    between atoms: _307  and  _310
REMARK  129  A    between atoms: _310  and  _311
REMARK  130  A    between atoms: _311  and  _312
REMARK  131  A    between atoms: _314  and  _316
REMARK  132  A    between atoms: _316  and  _317
REMARK  133  A    between atoms: _316  and  _319
REMARK  134  A    between atoms: _319  and  _320
REMARK  135  A    between atoms: _325  and  _327
REMARK  136  A    between atoms: _327  and  _328
REMARK  137  A    between atoms: _327  and  _330
REMARK  138  A    between atoms: _330  and  _331
REMARK  139  A    between atoms: _334  and  _336
REMARK  140  A    between atoms: _336  and  _337
REMARK  141  A    between atoms: _336  and  _339
REMARK  142  A    between atoms: _339  and  _340
REMARK  143  A    between atoms: _345  and  _347
REMARK  144  A    between atoms: _347  and  _348
REMARK  145  A    between atoms: _350  and  _352
REMARK  146  A    between atoms: _352  and  _353
REMARK  147  A    between atoms: _356  and  _358
REMARK  148  A    between atoms: _358  and  _359
REMARK  149  A    between atoms: _358  and  _361
REMARK  150  A    between atoms: _364  and  _366
REMARK  151  A    between atoms: _366  and  _367
REMARK  152  A    between atoms: _369  and  _371
REMARK  153  A    between atoms: _371  and  _372
REMARK  154  A    between atoms: _371  and  _374
REMARK  155  A    between atoms: _374  and  _375
REMARK  156  A    between atoms: _380  and  _381
REMARK  157  A    between atoms: _383  and  _385
REMARK  158  A    between atoms: _385  and  _386
REMARK  159  A    between atoms: _385  and  _388
REMARK  160  A    between atoms: _388  and  _389
REMARK  161  A    between atoms: _395  and  _397
REMARK  162  A    between atoms: _397  and  _398
REMARK  163  A    between atoms: _397  and  _400
REMARK  164  A    between atoms: _400  and  _401
REMARK  165  A    between atoms: _404  and  _406
REMARK  166  A    between atoms: _406  and  _407
REMARK  167  A    between atoms: _406  and  _409
REMARK  168  A    between atoms: _409  and  _410
REMARK  169  A    between atoms: _413  and  _415
REMARK  170  A    between atoms: _415  and  _416
REMARK  171  A    between atoms: _418  and  _420
REMARK  172  A    between atoms: _420  and  _421
REMARK  173  A    between atoms: _420  and  _423
REMARK  174  A    between atoms: _423  and  _424
REMARK  175  A    between atoms: _427  and  _429
REMARK  176  A    between atoms: _429  and  _430
REMARK  177  A    between atoms: _429  and  _432
REMARK  178  A    between atoms: _432  and  _433
REMARK  179  A    between atoms: _436  and  _438
REMARK  180  A    between atoms: _438  and  _439
REMARK  181  A    between atoms: _438  and  _441
REMARK  182  A    between atoms: _441  and  _442
REMARK  183  A    between atoms: _447  and  _449
REMARK  184  A    between atoms: _449  and  _450
REMARK  185  A    between atoms: _449  and  _452
REMARK  186  A    between atoms: _452  and  _453
REMARK  187  A    between atoms: _456  and  _458
REMARK  188  A    between atoms: _458  and  _459
REMARK  189  A    between atoms: _458  and  _461
REMARK  190  A    between atoms: _461  and  _462
REMARK  191  A    between atoms: _465  and  _467
REMARK  192  A    between atoms: _467  and  _468
REMARK  193  A    between atoms: _470  and  _472
REMARK  194  A    between atoms: _472  and  _473
REMARK  195  A    between atoms: _472  and  _475
REMARK  196  A    between atoms: _475  and  _476
REMARK  197  A    between atoms: _476  and  _477
REMARK  198  A    between atoms: _477  and  _478
REMARK  199  A    between atoms: _487  and  _489
REMARK  200  A    between atoms: _489  and  _490
REMARK  201  A    between atoms: _492  and  _494
REMARK  202  A    between atoms: _494  and  _495
REMARK  203  A    between atoms: _494  and  _497
REMARK  204  A    between atoms: _497  and  _498
REMARK  205  A    between atoms: _501  and  _503
REMARK  206  A    between atoms: _503  and  _504
REMARK  207  A    between atoms: _503  and  _512
REMARK  208  A    between atoms: _504  and  _505
REMARK  209  A    between atoms: _505  and  _506
REMARK  210  A    between atoms: _506  and  _507
REMARK  211  A    between atoms: _507  and  _508
REMARK  212  A    between atoms: _514  and  _516
REMARK  213  A    between atoms: _516  and  _517
REMARK  214  A    between atoms: _516  and  _519
REMARK  215  A    between atoms: _519  and  _520
REMARK  216  A    between atoms: _525  and  _527
REMARK  217  A    between atoms: _527  and  _528
REMARK  218  A    between atoms: _527  and  _530
REMARK  219  A    between atoms: _530  and  _531
REMARK  220  A    between atoms: _531  and  _532
REMARK  221  A    between atoms: _534  and  _536
REMARK  222  A    between atoms: _536  and  _537
REMARK  223  A    between atoms: _540  and  _542
REMARK  224  A    between atoms: _542  and  _543
REMARK  225  A    between atoms: _542  and  _545
REMARK  226  A    between atoms: _548  and  _550
REMARK  227  A    between atoms: _550  and  _551
REMARK  228  A    between atoms: _550  and  _553
REMARK  229  A    between atoms: _553  and  _554
REMARK  230  A    between atoms: _554  and  _555
REMARK  231  A    between atoms: _560  and  _562
REMARK  232  A    between atoms: _562  and  _563
REMARK  233  A    between atoms: _562  and  _565
REMARK  234  A    between atoms: _565  and  _566
REMARK                            x       y       z     vdW  Elec       q    Type
REMARK                         _______ _______ _______ _____ _____    ______ ____
ROOT
ATOM      1  CA  ASP A   1      39.034 -63.232  -6.786  0.00  0.00    +0.144 C 
ENDROOT
BRANCH   1   2
ATOM      2  N   ASP A   1      39.770 -62.253  -7.586  0.00  0.00    -0.239 NA
ATOM      3  H   ASP A   1      39.244 -61.596  -8.197  0.00  0.00    +0.142 HD
ENDBRANCH   1   2
BRANCH   1   4
ATOM      4  C   ASP A   1      38.771 -64.514  -7.550  0.00  0.00    +0.225 C 
ATOM      5  O   ASP A   1      38.359 -65.525  -6.969  0.00  0.00    -0.287 OA
ENDBRANCH   1   4
BRANCH   1   6
ATOM      6  CB  ASP A   1      37.707 -62.634  -6.294  0.00  0.00    +0.139 C 
BRANCH   6   7
ATOM      7  CG  ASP A   1      37.906 -61.534  -5.286  0.00  0.00    +0.367 C 
ATOM      8  OD2 ASP A   1      39.005 -61.483  -4.683  0.00  0.00    -0.246 OA
ATOM      9  OD1 ASP A   1      36.962 -60.725  -5.096  0.00  0.00    -0.246 OA
ENDBRANCH   6   7
ENDBRANCH   1   6
TORSDOF 4
REMARK  Name = ../refined-set-2016/4fut/4fut_pocket.pdb
REMARK  234 active torsions:
REMARK  status: ('A' for Active; 'I' for Inactive)
REMARK    1  A    between atoms: _1  and  _3
REMARK    2  A    between atoms: _3  and  _4
REMARK    3  A    between atoms: _3  and  _6
REMARK    4  A    between atoms: _6  and  _7
REMARK    5  A    between atoms: _12  and  _13
REMARK    6  A    between atoms: _15  and  _17
REMARK    7  A    between atoms: _17  and  _18
REMARK    8  A    between atoms: _17  and  _20
REMARK    9  A    between atoms: _20  and  _21
REMARK   10  A    between atoms: _24  and  _26
REMARK   11  A    between atoms: _26  and  _27
REMARK   12  A    between atoms: _26  and  _29
REMARK   13  A    between atoms: _29  and  _30
REMARK   14  A    between atoms: _35  and  _36
REMARK   15  A    between atoms: _38  and  _40
REMARK   16  A    between atoms: _40  and  _41
REMARK   17  A    between atoms: _40  and  _43
REMARK   18  A    between atoms: _43  and  _44
REMARK   19  A    between atoms: _47  and  _49
REMARK   20  A    between atoms: _49  and  _50
REMARK   21  A    between atoms: _49  and  _52
REMARK   22  A    between atoms: _52  and  _53
REMARK   23  A    between atoms: _55  and  _57
REMARK   24  A    between atoms: _57  and  _58
REMARK   25  A    between atoms: _60  and  _62
REMARK   26  A    between atoms: _62  and  _63
REMARK   27  A    between atoms: _62  and  _65
REMARK   28  A    between atoms: _65  and  _66
REMARK   29  A    between atoms: _69  and  _71
REMARK   30  A    between atoms: _71  and  _72
REMARK   31  A    between atoms: _71  and  _74
REMARK   32  A    between atoms: _74  and  _75
REMARK   33  A    between atoms: _78  and  _80
REMARK   34  A    between atoms: _80  and  _81
REMARK   35  A    between atoms: _83  and  _85
REMARK   36  A    between atoms: _85  and  _86
REMARK   37  A    between atoms: _85  and  _88
REMARK   38  A    between atoms: _88  and  _89
REMARK   39  A    between atoms: _89  and  _90
REMARK   40  A    between atoms: _90  and  _91
REMARK   41  A    between atoms: _100  and  _102
REMARK   42  A    between atoms: _102  and  _103
REMARK   43  A    between atoms: _102  and  _105
REMARK   44  A    between atoms: _105  and  _106
REMARK   45  A    between atoms: _108  and  _110
REMARK   46  A    between atoms: _110  and  _111
REMARK   47  A    between atoms: _110  and  _119
REMARK   48  A    between atoms: _111  and  _112
REMARK   49  A    between atoms: _112  and  _113
REMARK   50  A    between atoms: _113  and  _114
REMARK   51  A    between atoms: _114  and  _115
REMARK   52  A    between atoms: _121  and  _123
REMARK   53  A    between atoms: _123  and  _124
REMARK   54  A    between atoms: _123  and  _126
REMARK   55  A    between atoms: _126  and  _127
REMARK   56  A    between atoms: _132  and  _134
REMARK   57  A    between atoms: _134  and  _135
REMARK   58  A    between atoms: _134  and  _137
REMARK   59  A    between atoms: _137  and  _138
REMARK   60  A    between atoms: _141  and  _143
REMARK   61  A    between atoms: _143  and  _144
REMARK   62  A    between atoms: _143  and  _146
REMARK   63  A    between atoms: _146  and  _147
REMARK   64  A    between atoms: _153  and  _154
REMARK   65  A    between atoms: _159  and  _161
REMARK   66  A    between atoms: _161  and  _162
REMARK   67  A    between atoms: _161  and  _164
REMARK   68  A    between atoms: _164  and  _165
REMARK   69  A    between atoms: _167  and  _169
REMARK   70  A    between atoms: _169  and  _170
REMARK   71  A    between atoms: _172  and  _174
REMARK   72  A    between atoms: _174  and  _175
REMARK   73  A    between atoms: _174  and  _177
REMARK   74  A    between atoms: _177  and  _178
REMARK   75  A    between atoms: _180  and  _182
REMARK   76  A    between atoms: _182  and  _183
REMARK   77  A    between atoms: _187  and  _188
REMARK   78  A    between atoms: _193  and  _195
REMARK   79  A    between atoms: _195  and  _196
REMARK   80  A    between atoms: _195  and  _198
REMARK   81  A    between atoms: _198  and  _199
REMARK   82  A    between atoms: _202  and  _204
REMARK   83  A    between atoms: _204  and  _205
REMARK   84  A    between atoms: _204  and  _207
REMARK   85  A    between atoms: _207  and  _208
REMARK   86  A    between atoms: _211  and  _213
REMARK   87  A    between atoms: _213  and  _214
REMARK   88  A    between atoms: _213  and  _216
REMARK   89  A    between atoms: _216  and  _217
REMARK   90  A    between atoms: _217  and  _218
REMARK   91  A    between atoms: _221  and  _223
REMARK   92  A    between atoms: _223  and  _224
REMARK   93  A    between atoms: _223  and  _226
REMARK   94  A    between atoms: _226  and  _227
REMARK   95  A    between atoms: _227  and  _228
REMARK   96  A    between atoms: _228  and  _229
REMARK   97  A    between atoms: _238  and  _240
REMARK   98  A    between atoms: _240  and  _241
REMARK   99  A    between atoms: _240  and  _243
REMARK  100  A    between atoms: _243  and  _244
REMARK  101  A    between atoms: _249  and  _250
REMARK  102  A    between atoms: _252  and  _254
REMARK  103  A    between atoms: _254  and  _255
REMARK  104  A    between atoms: _257  and  _259
REMARK  105  A    between atoms: _259  and  _260
REMARK  106  A    between atoms: _259  and  _262
REMARK  107  A    between atoms: _262  and  _263
REMARK  108  A    between atoms: _263  and  _264
REMARK  109  A    between atoms: _266  and  _268
REMARK  110  A    between atoms: _268  and  _269
REMARK  111  A    between atoms: _268  and  _271
REMARK  112  A    between atoms: _271  and  _272
REMARK  113  A    between atoms: _275  and  _277
REMARK  114  A    between atoms: _277  and  _278
REMARK  115  A    between atoms: _277  and  _280
REMARK  116  A    between atoms: _280  and  _281
REMARK  117  A    between atoms: _281  and  _282
REMARK  118  A    between atoms: _285  and  _287
REMARK  119  A    between atoms: _287  and  _288
REMARK  120  A    between atoms: _287  and  _290
REMARK  121  A    between atoms: _290  and  _291
REMARK  122  A    between atoms: _294  and  _296
REMARK  123  A    between atoms: _296  and  _297
REMARK  124  A    between atoms: _296  and  _299
REMARK  125  A    between atoms: _299  and  _300
REMARK  126  A    between atoms: _305  and  _307
REMARK  127  A    between atoms: _307  and  _308
REMARK  128  A    between atoms: _307  and  _310
REMARK  129  A    between atoms: _310  and  _311
REMARK  130  A    between atoms: _311  and  _312
REMARK  131  A    between atoms: _314  and  _316
REMARK  132  A    between atoms: _316  and  _317
REMARK  133  A    between atoms: _316  and  _319
REMARK  134  A    between atoms: _319  and  _320
REMARK  135  A    between atoms: _325  and  _327
REMARK  136  A    between atoms: _327  and  _328
REMARK  137  A    between atoms: _327  and  _330
REMARK  138  A    between atoms: _330  and  _331
REMARK  139  A    between atoms: _334  and  _336
REMARK  140  A    between atoms: _336  and  _337
REMARK  141  A    between atoms: _336  and  _339
REMARK  142  A    between atoms: _339  and  _340
REMARK  143  A    between atoms: _345  and  _347
REMARK  144  A    between atoms: _347  and  _348
REMARK  145  A    between atoms: _350  and  _352
REMARK  146  A    between atoms: _352  and  _353
REMARK  147  A    between atoms: _356  and  _358
REMARK  148  A    between atoms: _358  and  _359
REMARK  149  A    between atoms: _358  and  _361
REMARK  150  A    between atoms: _364  and  _366
REMARK  151  A    between atoms: _366  and  _367
REMARK  152  A    between atoms: _369  and  _371
REMARK  153  A    between atoms: _371  and  _372
REMARK  154  A    between atoms: _371  and  _374
REMARK  155  A    between atoms: _374  and  _375
REMARK  156  A    between atoms: _380  and  _381
REMARK  157  A    between atoms: _383  and  _385
REMARK  158  A    between atoms: _385  and  _386
REMARK  159  A    between atoms: _385  and  _388
REMARK  160  A    between atoms: _388  and  _389
REMARK  161  A    between atoms: _395  and  _397
REMARK  162  A    between atoms: _397  and  _398
REMARK  163  A    between atoms: _397  and  _400
REMARK  164  A    between atoms: _400  and  _401
REMARK  165  A    between atoms: _404  and  _406
REMARK  166  A    between atoms: _406  and  _407
REMARK  167  A    between atoms: _406  and  _409
REMARK  168  A    between atoms: _409  and  _410
REMARK  169  A    between atoms: _413  and  _415
REMARK  170  A    between atoms: _415  and  _416
REMARK  171  A    between atoms: _418  and  _420
REMARK  172  A    between atoms: _420  and  _421
REMARK  173  A    between atoms: _420  and  _423
REMARK  174  A    between atoms: _423  and  _424
REMARK  175  A    between atoms: _427  and  _429
REMARK  176  A    between atoms: _429  and  _430
REMARK  177  A    between atoms: _429  and  _432
REMARK  178  A    between atoms: _432  and  _433
REMARK  179  A    between atoms: _436  and  _438
REMARK  180  A    between atoms: _438  and  _439
REMARK  181  A    between atoms: _438  and  _441
REMARK  182  A    between atoms: _441  and  _442
REMARK  183  A    between atoms: _447  and  _449
REMARK  184  A    between atoms: _449  and  _450
REMARK  185  A    between atoms: _449  and  _452
REMARK  186  A    between atoms: _452  and  _453
REMARK  187  A    between atoms: _456  and  _458
REMARK  188  A    between atoms: _458  and  _459
REMARK  189  A    between atoms: _458  and  _461
REMARK  190  A    between atoms: _461  and  _462
REMARK  191  A    between atoms: _465  and  _467
REMARK  192  A    between atoms: _467  and  _468
REMARK  193  A    between atoms: _470  and  _472
REMARK  194  A    between atoms: _472  and  _473
REMARK  195  A    between atoms: _472  and  _475
REMARK  196  A    between atoms: _475  and  _476
REMARK  197  A    between atoms: _476  and  _477
REMARK  198  A    between atoms: _477  and  _478
REMARK  199  A    between atoms: _487  and  _489
REMARK  200  A    between atoms: _489  and  _490
REMARK  201  A    between atoms: _492  and  _494
REMARK  202  A    between atoms: _494  and  _495
REMARK  203  A    between atoms: _494  and  _497
REMARK  204  A    between atoms: _497  and  _498
REMARK  205  A    between atoms: _501  and  _503
REMARK  206  A    between atoms: _503  and  _504
REMARK  207  A    between atoms: _503  and  _512
REMARK  208  A    between atoms: _504  and  _505
REMARK  209  A    between atoms: _505  and  _506
REMARK  210  A    between atoms: _506  and  _507
REMARK  211  A    between atoms: _507  and  _508
REMARK  212  A    between atoms: _514  and  _516
REMARK  213  A    between atoms: _516  and  _517
REMARK  214  A    between atoms: _516  and  _519
REMARK  215  A    between atoms: _519  and  _520
REMARK  216  A    between atoms: _525  and  _527
REMARK  217  A    between atoms: _527  and  _528
REMARK  218  A    between atoms: _527  and  _530
REMARK  219  A    between atoms: _530  and  _531
REMARK  220  A    between atoms: _531  and  _532
REMARK  221  A    between atoms: _534  and  _536
REMARK  222  A    between atoms: _536  and  _537
REMARK  223  A    between atoms: _540  and  _542
REMARK  224  A    between atoms: _542  and  _543
REMARK  225  A    between atoms: _542  and  _545
REMARK  226  A    between atoms: _548  and  _550
REMARK  227  A    between atoms: _550  and  _551
REMARK  228  A    between atoms: _550  and  _553
REMARK  229  A    between atoms: _553  and  _554
REMARK  230  A    between atoms: _554  and  _555
REMARK  231  A    between atoms: _560  and  _562
REMARK  232  A    between atoms: _562  and  _563
REMARK  233  A    between atoms: _562  and  _565
REMARK  234  A    between atoms: _565  and  _566
REMARK                            x       y       z     vdW  Elec       q    Type
REMARK                         _______ _______ _______ _____ _____    ______ ____
ROOT
ATOM      1  C   UNK     1      28.679 -64.490  -5.603  0.00  0.00    -0.000 C 
ENDROOT
BRANCH   1   2
ATOM      2  C   UNK     1      29.768 -65.208  -6.379  0.00  0.00    +0.025 C 
BRANCH   2   3
ATOM      3  C   UNK     1      30.306 -66.430  -5.620  0.00  0.00    +0.133 C 
BRANCH   3   4
ATOM      4  N   UNK     1      31.604 -66.856  -6.130  0.00  0.00    -0.239 NA
ATOM      5  H   UNK     1      32.004 -66.411  -6.980  0.00  0.00    +0.142 HD
ENDBRANCH   3   4
BRANCH   3   6
ATOM      6  C   UNK     1      29.255 -67.548  -5.572  0.00  0.00    +0.224 C 
ATOM      7  O   UNK     1      28.525 -67.674  -4.588  0.00  0.00    -0.287 OA
ENDBRANCH   3   6
ENDBRANCH   2   3
ENDBRANCH   1   2
BRANCH   1   8
ATOM      8  C   UNK     1      28.144 -63.253  -6.332  0.00  0.00    -0.023 C 
BRANCH   8   9
ATOM      9  C   UNK     1      27.067 -62.599  -5.491  0.00  0.00    -0.078 C 
BRANCH   9  10
ATOM     10  N   UNK     1      26.577 -61.312  -6.064  0.00  0.00    +0.384 N 
ATOM     11  C   UNK     1      25.722 -60.714  -5.030  0.00  0.00    -0.101 C 
ATOM     12  C   UNK     1      25.729 -61.660  -7.206  0.00  0.00    -0.101 C 
ATOM     13  H   UNK     1      27.346 -60.672  -6.349  0.00  0.00    -0.080 HD
ENDBRANCH   9  10
ENDBRANCH   8   9
ENDBRANCH   1   8
TORSDOF 7
REMARK  Name = ../refined-set-2016/4fut/4fut_pocket.pdb
REMARK  234 active torsions:
REMARK  status: ('A' for Active; 'I' for Inactive)
REMARK    1  A    between atoms: _1  and  _3
REMARK    2  A    between atoms: _3  and  _4
REMARK    3  A    between atoms: _3  and  _6
REMARK    4  A    between atoms: _6  and  _7
REMARK    5  A    between atoms: _12  and  _13
REMARK    6  A    between atoms: _15  and  _17
REMARK    7  A    between atoms: _17  and  _18
REMARK    8  A    between atoms: _17  and  _20
REMARK    9  A    between atoms: _20  and  _21
REMARK   10  A    between atoms: _24  and  _26
REMARK   11  A    between atoms: _26  and  _27
REMARK   12  A    between atoms: _26  and  _29
REMARK   13  A    between atoms: _29  and  _30
REMARK   14  A    between atoms: _35  and  _36
REMARK   15  A    between atoms: _38  and  _40
REMARK   16  A    between atoms: _40  and  _41
REMARK   17  A    between atoms: _40  and  _43
REMARK   18  A    between atoms: _43  and  _44
REMARK   19  A    between atoms: _47  and  _49
REMARK   20  A    between atoms: _49  and  _50
REMARK   21  A    between atoms: _49  and  _52
REMARK   22  A    between atoms: _52  and  _53
REMARK   23  A    between atoms: _55  and  _57
REMARK   24  A    between atoms: _57  and  _58
REMARK   25  A    between atoms: _60  and  _62
REMARK   26  A    between atoms: _62  and  _63
REMARK   27  A    between atoms: _62  and  _65
REMARK   28  A    between atoms: _65  and  _66
REMARK   29  A    between atoms: _69  and  _71
REMARK   30  A    between atoms: _71  and  _72
REMARK   31  A    between atoms: _71  and  _74
REMARK   32  A    between atoms: _74  and  _75
REMARK   33  A    between atoms: _78  and  _80
REMARK   34  A    between atoms: _80  and  _81
REMARK   35  A    between atoms: _83  and  _85
REMARK   36  A    between atoms: _85  and  _86
REMARK   37  A    between atoms: _85  and  _88
REMARK   38  A    between atoms: _88  and  _89
REMARK   39  A    between atoms: _89  and  _90
REMARK   40  A    between atoms: _90  and  _91
REMARK   41  A    between atoms: _100  and  _102
REMARK   42  A    between atoms: _102  and  _103
REMARK   43  A    between atoms: _102  and  _105
REMARK   44  A    between atoms: _105  and  _106
REMARK   45  A    between atoms: _108  and  _110
REMARK   46  A    between atoms: _110  and  _111
REMARK   47  A    between atoms: _110  and  _119
REMARK   48  A    between atoms: _111  and  _112
REMARK   49  A    between atoms: _112  and  _113
REMARK   50  A    between atoms: _113  and  _114
REMARK   51  A    between atoms: _114  and  _115
REMARK   52  A    between atoms: _121  and  _123
REMARK   53  A    between atoms: _123  and  _124
REMARK   54  A    between atoms: _123  and  _126
REMARK   55  A    between atoms: _126  and  _127
REMARK   56  A    between atoms: _132  and  _134
REMARK   57  A    between atoms: _134  and  _135
REMARK   58  A    between atoms: _134  and  _137
REMARK   59  A    between atoms: _137  and  _138
REMARK   60  A    between atoms: _141  and  _143
REMARK   61  A    between atoms: _143  and  _144
REMARK   62  A    between atoms: _143  and  _146
REMARK   63  A    between atoms: _146  and  _147
REMARK   64  A    between atoms: _153  and  _154
REMARK   65  A    between atoms: _159  and  _161
REMARK   66  A    between atoms: _161  and  _162
REMARK   67  A    between atoms: _161  and  _164
REMARK   68  A    between atoms: _164  and  _165
REMARK   69  A    between atoms: _167  and  _169
REMARK   70  A    between atoms: _169  and  _170
REMARK   71  A    between atoms: _172  and  _174
REMARK   72  A    between atoms: _174  and  _175
REMARK   73  A    between atoms: _174  and  _177
REMARK   74  A    between atoms: _177  and  _178
REMARK   75  A    between atoms: _180  and  _182
REMARK   76  A    between atoms: _182  and  _183
REMARK   77  A    between atoms: _187  and  _188
REMARK   78  A    between atoms: _193  and  _195
REMARK   79  A    between atoms: _195  and  _196
REMARK   80  A    between atoms: _195  and  _198
REMARK   81  A    between atoms: _198  and  _199
REMARK   82  A    between atoms: _202  and  _204
REMARK   83  A    between atoms: _204  and  _205
REMARK   84  A    between atoms: _204  and  _207
REMARK   85  A    between atoms: _207  and  _208
REMARK   86  A    between atoms: _211  and  _213
REMARK   87  A    between atoms: _213  and  _214
REMARK   88  A    between atoms: _213  and  _216
REMARK   89  A    between atoms: _216  and  _217
REMARK   90  A    between atoms: _217  and  _218
REMARK   91  A    between atoms: _221  and  _223
REMARK   92  A    between atoms: _223  and  _224
REMARK   93  A    between atoms: _223  and  _226
REMARK   94  A    between atoms: _226  and  _227
REMARK   95  A    between atoms: _227  and  _228
REMARK   96  A    between atoms: _228  and  _229
REMARK   97  A    between atoms: _238  and  _240
REMARK   98  A    between atoms: _240  and  _241
REMARK   99  A    between atoms: _240  and  _243
REMARK  100  A    between atoms: _243  and  _244
REMARK  101  A    between atoms: _249  and  _250
REMARK  102  A    between atoms: _252  and  _254
REMARK  103  A    between atoms: _254  and  _255
REMARK  104  A    between atoms: _257  and  _259
REMARK  105  A    between atoms: _259  and  _260
REMARK  106  A    between atoms: _259  and  _262
REMARK  107  A    between atoms: _262  and  _263
REMARK  108  A    between atoms: _263  and  _264
REMARK  109  A    between atoms: _266  and  _268
REMARK  110  A    between atoms: _268  and  _269
REMARK  111  A    between atoms: _268  and  _271
REMARK  112  A    between atoms: _271  and  _272
REMARK  113  A    between atoms: _275  and  _277
REMARK  114  A    between atoms: _277  and  _278
REMARK  115  A    between atoms: _277  and  _280
REMARK  116  A    between atoms: _280  and  _281
REMARK  117  A    between atoms: _281  and  _282
REMARK  118  A    between atoms: _285  and  _287
REMARK  119  A    between atoms: _287  and  _288
REMARK  120  A    between atoms: _287  and  _290
REMARK  121  A    between atoms: _290  and  _291
REMARK  122  A    between atoms: _294  and  _296
REMARK  123  A    between atoms: _296  and  _297
REMARK  124  A    between atoms: _296  and  _299
REMARK  125  A    between atoms: _299  and  _300
REMARK  126  A    between atoms: _305  and  _307
REMARK  127  A    between atoms: _307  and  _308
REMARK  128  A    between atoms: _307  and  _310
REMARK  129  A    between atoms: _310  and  _311
REMARK  130  A    between atoms: _311  and  _312
REMARK  131  A    between atoms: _314  and  _316
REMARK  132  A    between atoms: _316  and  _317
REMARK  133  A    between atoms: _316  and  _319
REMARK  134  A    between atoms: _319  and  _320
REMARK  135  A    between atoms: _325  and  _327
REMARK  136  A    between atoms: _327  and  _328
REMARK  137  A    between atoms: _327  and  _330
REMARK  138  A    between atoms: _330  and  _331
REMARK  139  A    between atoms: _334  and  _336
REMARK  140  A    between atoms: _336  and  _337
REMARK  141  A    between atoms: _336  and  _339
REMARK  142  A    between atoms: _339  and  _340
REMARK  143  A    between atoms: _345  and  _347
REMARK  144  A    between atoms: _347  and  _348
REMARK  145  A    between atoms: _350  and  _352
REMARK  146  A    between atoms: _352  and  _353
REMARK  147  A    between atoms: _356  and  _358
REMARK  148  A    between atoms: _358  and  _359
REMARK  149  A    between atoms: _358  and  _361
REMARK  150  A    between atoms: _364  and  _366
REMARK  151  A    between atoms: _366  and  _367
REMARK  152  A    between atoms: _369  and  _371
REMARK  153  A    between atoms: _371  and  _372
REMARK  154  A    between atoms: _371  and  _374
REMARK  155  A    between atoms: _374  and  _375
REMARK  156  A    between atoms: _380  and  _381
REMARK  157  A    between atoms: _383  and  _385
REMARK  158  A    between atoms: _385  and  _386
REMARK  159  A    between atoms: _385  and  _388
REMARK  160  A    between atoms: _388  and  _389
REMARK  161  A    between atoms: _395  and  _397
REMARK  162  A    between atoms: _397  and  _398
REMARK  163  A    between atoms: _397  and  _400
REMARK  164  A    between atoms: _400  and  _401
REMARK  165  A    between atoms: _404  and  _406
REMARK  166  A    between atoms: _406  and  _407
REMARK  167  A    between atoms: _406  and  _409
REMARK  168  A    between atoms: _409  and  _410
REMARK  169  A    between atoms: _413  and  _415
REMARK  170  A    between atoms: _415  and  _416
REMARK  171  A    between atoms: _418  and  _420
REMARK  172  A    between atoms: _420  and  _421
REMARK  173  A    between atoms: _420  and  _423
REMARK  174  A    between atoms: _423  and  _424
REMARK  175  A    between atoms: _427  and  _429
REMARK  176  A    between atoms: _429  and  _430
REMARK  177  A    between atoms: _429  and  _432
REMARK  178  A    between atoms: _432  and  _433
REMARK  179  A    between atoms: _436  and  _438
REMARK  180  A    between atoms: _438  and  _439
REMARK  181  A    between atoms: _438  and  _441
REMARK  182  A    between atoms: _441  and  _442
REMARK  183  A    between atoms: _447  and  _449
REMARK  184  A    between atoms: _449  and  _450
REMARK  185  A    between atoms: _449  and  _452
REMARK  186  A    between atoms: _452  and  _453
REMARK  187  A    between atoms: _456  and  _458
REMARK  188  A    between atoms: _458  and  _459
REMARK  189  A    between atoms: _458  and  _461
REMARK  190  A    between atoms: _461  and  _462
REMARK  191  A    between atoms: _465  and  _467
REMARK  192  A    between atoms: _467  and  _468
REMARK  193  A    between atoms: _470  and  _472
REMARK  194  A    between atoms: _472  and  _473
REMARK  195  A    between atoms: _472  and  _475
REMARK  196  A    between atoms: _475  and  _476
REMARK  197  A    between atoms: _476  and  _477
REMARK  198  A    between atoms: _477  and  _478
REMARK  199  A    between atoms: _487  and  _489
REMARK  200  A    between atoms: _489  and  _490
REMARK  201  A    between atoms: _492  and  _494
REMARK  202  A    between atoms: _494  and  _495
REMARK  203  A    between atoms: _494  and  _497
REMARK  204  A    between atoms: _497  and  _498
REMARK  205  A    between atoms: _501  and  _503
REMARK  206  A    between atoms: _503  and  _504
REMARK  207  A    between atoms: _503  and  _512
REMARK  208  A    between atoms: _504  and  _505
REMARK  209  A    between atoms: _505  and  _506
REMARK  210  A    between atoms: _506  and  _507
REMARK  211  A    between atoms: _507  and  _508
REMARK  212  A    between atoms: _514  and  _516
REMARK  213  A    between atoms: _516  and  _517
REMARK  214  A    between atoms: _516  and  _519
REMARK  215  A    between atoms: _519  and  _520
REMARK  216  A    between atoms: _525  and  _527
REMARK  217  A    between atoms: _527  and  _528
REMARK  218  A    between atoms: _527  and  _530
REMARK  219  A    between atoms: _530  and  _531
REMARK  220  A    between atoms: _531  and  _532
REMARK  221  A    between atoms: _534  and  _536
REMARK  222  A    between atoms: _536  and  _537
REMARK  223  A    between atoms: _540  and  _542
REMARK  224  A    between atoms: _542  and  _543
REMARK  225  A    between atoms: _542  and  _545
REMARK  226  A    between atoms: _548  and  _550
REMARK  227  A    between atoms: _550  and  _551
REMARK  228  A    between atoms: _550  and  _553
REMARK  229  A    between atoms: _553  and  _554
REMARK  230  A    between atoms: _554  and  _555
REMARK  231  A    between atoms: _560  and  _562
REMARK  232  A    between atoms: _562  and  _563
REMARK  233  A    between atoms: _562  and  _565
REMARK  234  A    between atoms: _565  and  _566
REMARK                            x       y       z     vdW  Elec       q    Type
REMARK                         _______ _______ _______ _____ _____    ______ ____
ROOT
ATOM      1  CB  ASN A   1      37.902 -51.952   4.196  0.00  0.00    +0.110 C 
ENDROOT
BRANCH   1   2
ATOM      2  CG  ASN A   1      36.798 -51.715   3.174  0.00  0.00    +0.221 C 
ATOM      3  OD1 ASN A   1      35.615 -51.711   3.501  0.00  0.00    -0.275 OA
ATOM      4  ND2 ASN A   1      37.193 -51.518   1.918  0.00  0.00    -0.329 N 
ATOM      5 HD21 ASN A   1      38.206 -51.529   1.684  0.00  0.00    +0.145 HD
ATOM      6 HD22 ASN A   1      36.488 -51.353   1.171  0.00  0.00    +0.145 HD
ENDBRANCH   1   2
BRANCH   1   7
ATOM      7  CA  ASN A   1      37.378 -52.482   5.538  0.00  0.00    +0.142 C 
BRANCH   7   8
ATOM      8  N   ASN A   1      36.855 -53.843   5.429  0.00  0.00    -0.239 NA
ATOM      9  H   ASN A   1      36.488 -54.185   4.518  0.00  0.00    +0.142 HD
ENDBRANCH   7   8
BRANCH   7  10
ATOM     10  C   ASN A   1      36.337 -51.545   6.135  0.00  0.00    +0.225 C 
ATOM     11  O   ASN A   1      35.229 -51.971   6.454  0.00  0.00    -0.287 OA
ENDBRANCH   7  10
ENDBRANCH   1   7
TORSDOF 4
REMARK  Name = ../refined-set-2016/4fut/4fut_pocket.pdb
REMARK  234 active torsions:
REMARK  status: ('A' for Active; 'I' for Inactive)
REMARK    1  A    between atoms: _1  and  _3
REMARK    2  A    between atoms: _3  and  _4
REMARK    3  A    between atoms: _3  and  _6
REMARK    4  A    between atoms: _6  and  _7
REMARK    5  A    between atoms: _12  and  _13
REMARK    6  A    between atoms: _15  and  _17
REMARK    7  A    between atoms: _17  and  _18
REMARK    8  A    between atoms: _17  and  _20
REMARK    9  A    between atoms: _20  and  _21
REMARK   10  A    between atoms: _24  and  _26
REMARK   11  A    between atoms: _26  and  _27
REMARK   12  A    between atoms: _26  and  _29
REMARK   13  A    between atoms: _29  and  _30
REMARK   14  A    between atoms: _35  and  _36
REMARK   15  A    between atoms: _38  and  _40
REMARK   16  A    between atoms: _40  and  _41
REMARK   17  A    between atoms: _40  and  _43
REMARK   18  A    between atoms: _43  and  _44
REMARK   19  A    between atoms: _47  and  _49
REMARK   20  A    between atoms: _49  and  _50
REMARK   21  A    between atoms: _49  and  _52
REMARK   22  A    between atoms: _52  and  _53
REMARK   23  A    between atoms: _55  and  _57
REMARK   24  A    between atoms: _57  and  _58
REMARK   25  A    between atoms: _60  and  _62
REMARK   26  A    between atoms: _62  and  _63
REMARK   27  A    between atoms: _62  and  _65
REMARK   28  A    between atoms: _65  and  _66
REMARK   29  A    between atoms: _69  and  _71
REMARK   30  A    between atoms: _71  and  _72
REMARK   31  A    between atoms: _71  and  _74
REMARK   32  A    between atoms: _74  and  _75
REMARK   33  A    between atoms: _78  and  _80
REMARK   34  A    between atoms: _80  and  _81
REMARK   35  A    between atoms: _83  and  _85
REMARK   36  A    between atoms: _85  and  _86
REMARK   37  A    between atoms: _85  and  _88
REMARK   38  A    between atoms: _88  and  _89
REMARK   39  A    between atoms: _89  and  _90
REMARK   40  A    between atoms: _90  and  _91
REMARK   41  A    between atoms: _100  and  _102
REMARK   42  A    between atoms: _102  and  _103
REMARK   43  A    between atoms: _102  and  _105
REMARK   44  A    between atoms: _105  and  _106
REMARK   45  A    between atoms: _108  and  _110
REMARK   46  A    between atoms: _110  and  _111
REMARK   47  A    between atoms: _110  and  _119
REMARK   48  A    between atoms: _111  and  _112
REMARK   49  A    between atoms: _112  and  _113
REMARK   50  A    between atoms: _113  and  _114
REMARK   51  A    between atoms: _114  and  _115
REMARK   52  A    between atoms: _121  and  _123
REMARK   53  A    between atoms: _123  and  _124
REMARK   54  A    between atoms: _123  and  _126
REMARK   55  A    between atoms: _126  and  _127
REMARK   56  A    between atoms: _132  and  _134
REMARK   57  A    between atoms: _134  and  _135
REMARK   58  A    between atoms: _134  and  _137
REMARK   59  A    between atoms: _137  and  _138
REMARK   60  A    between atoms: _141  and  _143
REMARK   61  A    between atoms: _143  and  _144
REMARK   62  A    between atoms: _143  and  _146
REMARK   63  A    between atoms: _146  and  _147
REMARK   64  A    between atoms: _153  and  _154
REMARK   65  A    between atoms: _159  and  _161
REMARK   66  A    between atoms: _161  and  _162
REMARK   67  A    between atoms: _161  and  _164
REMARK   68  A    between atoms: _164  and  _165
REMARK   69  A    between atoms: _167  and  _169
REMARK   70  A    between atoms: _169  and  _170
REMARK   71  A    between atoms: _172  and  _174
REMARK   72  A    between atoms: _174  and  _175
REMARK   73  A    between atoms: _174  and  _177
REMARK   74  A    between atoms: _177  and  _178
REMARK   75  A    between atoms: _180  and  _182
REMARK   76  A    between atoms: _182  and  _183
REMARK   77  A    between atoms: _187  and  _188
REMARK   78  A    between atoms: _193  and  _195
REMARK   79  A    between atoms: _195  and  _196
REMARK   80  A    between atoms: _195  and  _198
REMARK   81  A    between atoms: _198  and  _199
REMARK   82  A    between atoms: _202  and  _204
REMARK   83  A    between atoms: _204  and  _205
REMARK   84  A    between atoms: _204  and  _207
REMARK   85  A    between atoms: _207  and  _208
REMARK   86  A    between atoms: _211  and  _213
REMARK   87  A    between atoms: _213  and  _214
REMARK   88  A    between atoms: _213  and  _216
REMARK   89  A    between atoms: _216  and  _217
REMARK   90  A    between atoms: _217  and  _218
REMARK   91  A    between atoms: _221  and  _223
REMARK   92  A    between atoms: _223  and  _224
REMARK   93  A    between atoms: _223  and  _226
REMARK   94  A    between atoms: _226  and  _227
REMARK   95  A    between atoms: _227  and  _228
REMARK   96  A    between atoms: _228  and  _229
REMARK   97  A    between atoms: _238  and  _240
REMARK   98  A    between atoms: _240  and  _241
REMARK   99  A    between atoms: _240  and  _243
REMARK  100  A    between atoms: _243  and  _244
REMARK  101  A    between atoms: _249  and  _250
REMARK  102  A    between atoms: _252  and  _254
REMARK  103  A    between atoms: _254  and  _255
REMARK  104  A    between atoms: _257  and  _259
REMARK  105  A    between atoms: _259  and  _260
REMARK  106  A    between atoms: _259  and  _262
REMARK  107  A    between atoms: _262  and  _263
REMARK  108  A    between atoms: _263  and  _264
REMARK  109  A    between atoms: _266  and  _268
REMARK  110  A    between atoms: _268  and  _269
REMARK  111  A    between atoms: _268  and  _271
REMARK  112  A    between atoms: _271  and  _272
REMARK  113  A    between atoms: _275  and  _277
REMARK  114  A    between atoms: _277  and  _278
REMARK  115  A    between atoms: _277  and  _280
REMARK  116  A    between atoms: _280  and  _281
REMARK  117  A    between atoms: _281  and  _282
REMARK  118  A    between atoms: _285  and  _287
REMARK  119  A    between atoms: _287  and  _288
REMARK  120  A    between atoms: _287  and  _290
REMARK  121  A    between atoms: _290  and  _291
REMARK  122  A    between atoms: _294  and  _296
REMARK  123  A    between atoms: _296  and  _297
REMARK  124  A    between atoms: _296  and  _299
REMARK  125  A    between atoms: _299  and  _300
REMARK  126  A    between atoms: _305  and  _307
REMARK  127  A    between atoms: _307  and  _308
REMARK  128  A    between atoms: _307  and  _310
REMARK  129  A    between atoms: _310  and  _311
REMARK  130  A    between atoms: _311  and  _312
REMARK  131  A    between atoms: _314  and  _316
REMARK  132  A    between atoms: _316  and  _317
REMARK  133  A    between atoms: _316  and  _319
REMARK  134  A    between atoms: _319  and  _320
REMARK  135  A    between atoms: _325  and  _327
REMARK  136  A    between atoms: _327  and  _328
REMARK  137  A    between atoms: _327  and  _330
REMARK  138  A    between atoms: _330  and  _331
REMARK  139  A    between atoms: _334  and  _336
REMARK  140  A    between atoms: _336  and  _337
REMARK  141  A    between atoms: _336  and  _339
REMARK  142  A    between atoms: _339  and  _340
REMARK  143  A    between atoms: _345  and  _347
REMARK  144  A    between atoms: _347  and  _348
REMARK  145  A    between atoms: _350  and  _352
REMARK  146  A    between atoms: _352  and  _353
REMARK  147  A    between atoms: _356  and  _358
REMARK  148  A    between atoms: _358  and  _359
REMARK  149  A    between atoms: _358  and  _361
REMARK  150  A    between atoms: _364  and  _366
REMARK  151  A    between atoms: _366  and  _367
REMARK  152  A    between atoms: _369  and  _371
REMARK  153  A    between atoms: _371  and  _372
REMARK  154  A    between atoms: _371  and  _374
REMARK  155  A    between atoms: _374  and  _375
REMARK  156  A    between atoms: _380  and  _381
REMARK  157  A    between atoms: _383  and  _385
REMARK  158  A    between atoms: _385  and  _386
REMARK  159  A    between atoms: _385  and  _388
REMARK  160  A    between atoms: _388  and  _389
REMARK  161  A    between atoms: _395  and  _397
REMARK  162  A    between atoms: _397  and  _398
REMARK  163  A    between atoms: _397  and  _400
REMARK  164  A    between atoms: _400  and  _401
REMARK  165  A    between atoms: _404  and  _406
REMARK  166  A    between atoms: _406  and  _407
REMARK  167  A    between atoms: _406  and  _409
REMARK  168  A    between atoms: _409  and  _410
REMARK  169  A    between atoms: _413  and  _415
REMARK  170  A    between atoms: _415  and  _416
REMARK  171  A    between atoms: _418  and  _420
REMARK  172  A    between atoms: _420  and  _421
REMARK  173  A    between atoms: _420  and  _423
REMARK  174  A    between atoms: _423  and  _424
REMARK  175  A    between atoms: _427  and  _429
REMARK  176  A    between atoms: _429  and  _430
REMARK  177  A    between atoms: _429  and  _432
REMARK  178  A    between atoms: _432  and  _433
REMARK  179  A    between atoms: _436  and  _438
REMARK  180  A    between atoms: _438  and  _439
REMARK  181  A    between atoms: _438  and  _441
REMARK  182  A    between atoms: _441  and  _442
REMARK  183  A    between atoms: _447  and  _449
REMARK  184  A    between atoms: _449  and  _450
REMARK  185  A    between atoms: _449  and  _452
REMARK  186  A    between atoms: _452  and  _453
REMARK  187  A    between atoms: _456  and  _458
REMARK  188  A    between atoms: _458  and  _459
REMARK  189  A    between atoms: _458  and  _461
REMARK  190  A    between atoms: _461  and  _462
REMARK  191  A    between atoms: _465  and  _467
REMARK  192  A    between atoms: _467  and  _468
REMARK  193  A    between atoms: _470  and  _472
REMARK  194  A    between atoms: _472  and  _473
REMARK  195  A    between atoms: _472  and  _475
REMARK  196  A    between atoms: _475  and  _476
REMARK  197  A    between atoms: _476  and  _477
REMARK  198  A    between atoms: _477  and  _478
REMARK  199  A    between atoms: _487  and  _489
REMARK  200  A    between atoms: _489  and  _490
REMARK  201  A    between atoms: _492  and  _494
REMARK  202  A    between atoms: _494  and  _495
REMARK  203  A    between atoms: _494  and  _497
REMARK  204  A    between atoms: _497  and  _498
REMARK  205  A    between atoms: _501  and  _503
REMARK  206  A    between atoms: _503  and  _504
REMARK  207  A    between atoms: _503  and  _512
REMARK  208  A    between atoms: _504  and  _505
REMARK  209  A    between atoms: _505  and  _506
REMARK  210  A    between atoms: _506  and  _507
REMARK  211  A    between atoms: _507  and  _508
REMARK  212  A    between atoms: _514  and  _516
REMARK  213  A    between atoms: _516  and  _517
REMARK  214  A    between atoms: _516  and  _519
REMARK  215  A    between atoms: _519  and  _520
REMARK  216  A    between atoms: _525  and  _527
REMARK  217  A    between atoms: _527  and  _528
REMARK  218  A    between atoms: _527  and  _530
REMARK  219  A    between atoms: _530  and  _531
REMARK  220  A    between atoms: _531  and  _532
REMARK  221  A    between atoms: _534  and  _536
REMARK  222  A    between atoms: _536  and  _537
REMARK  223  A    between atoms: _540  and  _542
REMARK  224  A    between atoms: _542  and  _543
REMARK  225  A    between atoms: _542  and  _545
REMARK  226  A    between atoms: _548  and  _550
REMARK  227  A    between atoms: _550  and  _551
REMARK  228  A    between atoms: _550  and  _553
REMARK  229  A    between atoms: _553  and  _554
REMARK  230  A    between atoms: _554  and  _555
REMARK  231  A    between atoms: _560  and  _562
REMARK  232  A    between atoms: _562  and  _563
REMARK  233  A    between atoms: _562  and  _565
REMARK  234  A    between atoms: _565  and  _566
REMARK                            x       y       z     vdW  Elec       q    Type
REMARK                         _______ _______ _______ _____ _____    ______ ____
ROOT
ATOM      1  CA  MET A   1      33.127 -49.338   4.240  0.00  0.00    +0.134 C 
ENDROOT
BRANCH   1   2
ATOM      2  N   MET A   1      34.384 -49.478   4.985  0.00  0.00    -0.239 NA
ATOM      3  H   MET A   1      35.215 -49.887   4.512  0.00  0.00    +0.142 HD
ENDBRANCH   1   2
BRANCH   1   4
ATOM      4  C   MET A   1      32.327 -50.646   4.177  0.00  0.00    +0.224 C 
ATOM      5  O   MET A   1      31.307 -50.724   3.494  0.00  0.00    -0.287 OA
ENDBRANCH   1   4
BRANCH   1   6
ATOM      6  CB  MET A   1      33.379 -48.813   2.817  0.00  0.00    +0.037 C 
BRANCH   6   7
ATOM      7  CG  MET A   1      33.524 -47.297   2.708  0.00  0.00    +0.059 C 
BRANCH   7   8
ATOM      8  SD  MET A   1      31.985 -46.395   2.998  0.00  0.00    -0.139 S 
ATOM      9  CE  MET A   1      31.035 -46.836   1.536  0.00  0.00    +0.069 C 
ENDBRANCH   7   8
ENDBRANCH   6   7
ENDBRANCH   1   6
TORSDOF 5
REMARK  Name = ../refined-set-2016/4fut/4fut_pocket.pdb
REMARK  234 active torsions:
REMARK  status: ('A' for Active; 'I' for Inactive)
REMARK    1  A    between atoms: _1  and  _3
REMARK    2  A    between atoms: _3  and  _4
REMARK    3  A    between atoms: _3  and  _6
REMARK    4  A    between atoms: _6  and  _7
REMARK    5  A    between atoms: _12  and  _13
REMARK    6  A    between atoms: _15  and  _17
REMARK    7  A    between atoms: _17  and  _18
REMARK    8  A    between atoms: _17  and  _20
REMARK    9  A    between atoms: _20  and  _21
REMARK   10  A    between atoms: _24  and  _26
REMARK   11  A    between atoms: _26  and  _27
REMARK   12  A    between atoms: _26  and  _29
REMARK   13  A    between atoms: _29  and  _30
REMARK   14  A    between atoms: _35  and  _36
REMARK   15  A    between atoms: _38  and  _40
REMARK   16  A    between atoms: _40  and  _41
REMARK   17  A    between atoms: _40  and  _43
REMARK   18  A    between atoms: _43  and  _44
REMARK   19  A    between atoms: _47  and  _49
REMARK   20  A    between atoms: _49  and  _50
REMARK   21  A    between atoms: _49  and  _52
REMARK   22  A    between atoms: _52  and  _53
REMARK   23  A    between atoms: _55  and  _57
REMARK   24  A    between atoms: _57  and  _58
REMARK   25  A    between atoms: _60  and  _62
REMARK   26  A    between atoms: _62  and  _63
REMARK   27  A    between atoms: _62  and  _65
REMARK   28  A    between atoms: _65  and  _66
REMARK   29  A    between atoms: _69  and  _71
REMARK   30  A    between atoms: _71  and  _72
REMARK   31  A    between atoms: _71  and  _74
REMARK   32  A    between atoms: _74  and  _75
REMARK   33  A    between atoms: _78  and  _80
REMARK   34  A    between atoms: _80  and  _81
REMARK   35  A    between atoms: _83  and  _85
REMARK   36  A    between atoms: _85  and  _86
REMARK   37  A    between atoms: _85  and  _88
REMARK   38  A    between atoms: _88  and  _89
REMARK   39  A    between atoms: _89  and  _90
REMARK   40  A    between atoms: _90  and  _91
REMARK   41  A    between atoms: _100  and  _102
REMARK   42  A    between atoms: _102  and  _103
REMARK   43  A    between atoms: _102  and  _105
REMARK   44  A    between atoms: _105  and  _106
REMARK   45  A    between atoms: _108  and  _110
REMARK   46  A    between atoms: _110  and  _111
REMARK   47  A    between atoms: _110  and  _119
REMARK   48  A    between atoms: _111  and  _112
REMARK   49  A    between atoms: _112  and  _113
REMARK   50  A    between atoms: _113  and  _114
REMARK   51  A    between atoms: _114  and  _115
REMARK   52  A    between atoms: _121  and  _123
REMARK   53  A    between atoms: _123  and  _124
REMARK   54  A    between atoms: _123  and  _126
REMARK   55  A    between atoms: _126  and  _127
REMARK   56  A    between atoms: _132  and  _134
REMARK   57  A    between atoms: _134  and  _135
REMARK   58  A    between atoms: _134  and  _137
REMARK   59  A    between atoms: _137  and  _138
REMARK   60  A    between atoms: _141  and  _143
REMARK   61  A    between atoms: _143  and  _144
REMARK   62  A    between atoms: _143  and  _146
REMARK   63  A    between atoms: _146  and  _147
REMARK   64  A    between atoms: _153  and  _154
REMARK   65  A    between atoms: _159  and  _161
REMARK   66  A    between atoms: _161  and  _162
REMARK   67  A    between atoms: _161  and  _164
REMARK   68  A    between atoms: _164  and  _165
REMARK   69  A    between atoms: _167  and  _169
REMARK   70  A    between atoms: _169  and  _170
REMARK   71  A    between atoms: _172  and  _174
REMARK   72  A    between atoms: _174  and  _175
REMARK   73  A    between atoms: _174  and  _177
REMARK   74  A    between atoms: _177  and  _178
REMARK   75  A    between atoms: _180  and  _182
REMARK   76  A    between atoms: _182  and  _183
REMARK   77  A    between atoms: _187  and  _188
REMARK   78  A    between atoms: _193  and  _195
REMARK   79  A    between atoms: _195  and  _196
REMARK   80  A    between atoms: _195  and  _198
REMARK   81  A    between atoms: _198  and  _199
REMARK   82  A    between atoms: _202  and  _204
REMARK   83  A    between atoms: _204  and  _205
REMARK   84  A    between atoms: _204  and  _207
REMARK   85  A    between atoms: _207  and  _208
REMARK   86  A    between atoms: _211  and  _213
REMARK   87  A    between atoms: _213  and  _214
REMARK   88  A    between atoms: _213  and  _216
REMARK   89  A    between atoms: _216  and  _217
REMARK   90  A    between atoms: _217  and  _218
REMARK   91  A    between atoms: _221  and  _223
REMARK   92  A    between atoms: _223  and  _224
REMARK   93  A    between atoms: _223  and  _226
REMARK   94  A    between atoms: _226  and  _227
REMARK   95  A    between atoms: _227  and  _228
REMARK   96  A    between atoms: _228  and  _229
REMARK   97  A    between atoms: _238  and  _240
REMARK   98  A    between atoms: _240  and  _241
REMARK   99  A    between atoms: _240  and  _243
REMARK  100  A    between atoms: _243  and  _244
REMARK  101  A    between atoms: _249  and  _250
REMARK  102  A    between atoms: _252  and  _254
REMARK  103  A    between atoms: _254  and  _255
REMARK  104  A    between atoms: _257  and  _259
REMARK  105  A    between atoms: _259  and  _260
REMARK  106  A    between atoms: _259  and  _262
REMARK  107  A    between atoms: _262  and  _263
REMARK  108  A    between atoms: _263  and  _264
REMARK  109  A    between atoms: _266  and  _268
REMARK  110  A    between atoms: _268  and  _269
REMARK  111  A    between atoms: _268  and  _271
REMARK  112  A    between atoms: _271  and  _272
REMARK  113  A    between atoms: _275  and  _277
REMARK  114  A    between atoms: _277  and  _278
REMARK  115  A    between atoms: _277  and  _280
REMARK  116  A    between atoms: _280  and  _281
REMARK  117  A    between atoms: _281  and  _282
REMARK  118  A    between atoms: _285  and  _287
REMARK  119  A    between atoms: _287  and  _288
REMARK  120  A    between atoms: _287  and  _290
REMARK  121  A    between atoms: _290  and  _291
REMARK  122  A    between atoms: _294  and  _296
REMARK  123  A    between atoms: _296  and  _297
REMARK  124  A    between atoms: _296  and  _299
REMARK  125  A    between atoms: _299  and  _300
REMARK  126  A    between atoms: _305  and  _307
REMARK  127  A    between atoms: _307  and  _308
REMARK  128  A    between atoms: _307  and  _310
REMARK  129  A    between atoms: _310  and  _311
REMARK  130  A    between atoms: _311  and  _312
REMARK  131  A    between atoms: _314  and  _316
REMARK  132  A    between atoms: _316  and  _317
REMARK  133  A    between atoms: _316  and  _319
REMARK  134  A    between atoms: _319  and  _320
REMARK  135  A    between atoms: _325  and  _327
REMARK  136  A    between atoms: _327  and  _328
REMARK  137  A    between atoms: _327  and  _330
REMARK  138  A    between atoms: _330  and  _331
REMARK  139  A    between atoms: _334  and  _336
REMARK  140  A    between atoms: _336  and  _337
REMARK  141  A    between atoms: _336  and  _339
REMARK  142  A    between atoms: _339  and  _340
REMARK  143  A    between atoms: _345  and  _347
REMARK  144  A    between atoms: _347  and  _348
REMARK  145  A    between atoms: _350  and  _352
REMARK  146  A    between atoms: _352  and  _353
REMARK  147  A    between atoms: _356  and  _358
REMARK  148  A    between atoms: _358  and  _359
REMARK  149  A    between atoms: _358  and  _361
REMARK  150  A    between atoms: _364  and  _366
REMARK  151  A    between atoms: _366  and  _367
REMARK  152  A    between atoms: _369  and  _371
REMARK  153  A    between atoms: _371  and  _372
REMARK  154  A    between atoms: _371  and  _374
REMARK  155  A    between atoms: _374  and  _375
REMARK  156  A    between atoms: _380  and  _381
REMARK  157  A    between atoms: _383  and  _385
REMARK  158  A    between atoms: _385  and  _386
REMARK  159  A    between atoms: _385  and  _388
REMARK  160  A    between atoms: _388  and  _389
REMARK  161  A    between atoms: _395  and  _397
REMARK  162  A    between atoms: _397  and  _398
REMARK  163  A    between atoms: _397  and  _400
REMARK  164  A    between atoms: _400  and  _401
REMARK  165  A    between atoms: _404  and  _406
REMARK  166  A    between atoms: _406  and  _407
REMARK  167  A    between atoms: _406  and  _409
REMARK  168  A    between atoms: _409  and  _410
REMARK  169  A    between atoms: _413  and  _415
REMARK  170  A    between atoms: _415  and  _416
REMARK  171  A    between atoms: _418  and  _420
REMARK  172  A    between atoms: _420  and  _421
REMARK  173  A    between atoms: _420  and  _423
REMARK  174  A    between atoms: _423  and  _424
REMARK  175  A    between atoms: _427  and  _429
REMARK  176  A    between atoms: _429  and  _430
REMARK  177  A    between atoms: _429  and  _432
REMARK  178  A    between atoms: _432  and  _433
REMARK  179  A    between atoms: _436  and  _438
REMARK  180  A    between atoms: _438  and  _439
REMARK  181  A    between atoms: _438  and  _441
REMARK  182  A    between atoms: _441  and  _442
REMARK  183  A    between atoms: _447  and  _449
REMARK  184  A    between atoms: _449  and  _450
REMARK  185  A    between atoms: _449  and  _452
REMARK  186  A    between atoms: _452  and  _453
REMARK  187  A    between atoms: _456  and  _458
REMARK  188  A    between atoms: _458  and  _459
REMARK  189  A    between atoms: _458  and  _461
REMARK  190  A    between atoms: _461  and  _462
REMARK  191  A    between atoms: _465  and  _467
REMARK  192  A    between atoms: _467  and  _468
REMARK  193  A    between atoms: _470  and  _472
REMARK  194  A    between atoms: _472  and  _473
REMARK  195  A    between atoms: _472  and  _475
REMARK  196  A    between atoms: _475  and  _476
REMARK  197  A    between atoms: _476  and  _477
REMARK  198  A    between atoms: _477  and  _478
REMARK  199  A    between atoms: _487  and  _489
REMARK  200  A    between atoms: _489  and  _490
REMARK  201  A    between atoms: _492  and  _494
REMARK  202  A    between atoms: _494  and  _495
REMARK  203  A    between atoms: _494  and  _497
REMARK  204  A    between atoms: _497  and  _498
REMARK  205  A    between atoms: _501  and  _503
REMARK  206  A    between atoms: _503  and  _504
REMARK  207  A    between atoms: _503  and  _512
REMARK  208  A    between atoms: _504  and  _505
REMARK  209  A    between atoms: _505  and  _506
REMARK  210  A    between atoms: _506  and  _507
REMARK  211  A    between atoms: _507  and  _508
REMARK  212  A    between atoms: _514  and  _516
REMARK  213  A    between atoms: _516  and  _517
REMARK  214  A    between atoms: _516  and  _519
REMARK  215  A    between atoms: _519  and  _520
REMARK  216  A    between atoms: _525  and  _527
REMARK  217  A    between atoms: _527  and  _528
REMARK  218  A    between atoms: _527  and  _530
REMARK  219  A    between atoms: _530  and  _531
REMARK  220  A    between atoms: _531  and  _532
REMARK  221  A    between atoms: _534  and  _536
REMARK  222  A    between atoms: _536  and  _537
REMARK  223  A    between atoms: _540  and  _542
REMARK  224  A    between atoms: _542  and  _543
REMARK  225  A    between atoms: _542  and  _545
REMARK  226  A    between atoms: _548  and  _550
REMARK  227  A    between atoms: _550  and  _551
REMARK  228  A    between atoms: _550  and  _553
REMARK  229  A    between atoms: _553  and  _554
REMARK  230  A    between atoms: _554  and  _555
REMARK  231  A    between atoms: _560  and  _562
REMARK  232  A    between atoms: _562  and  _563
REMARK  233  A    between atoms: _562  and  _565
REMARK  234  A    between atoms: _565  and  _566
REMARK                            x       y       z     vdW  Elec       q    Type
REMARK                         _______ _______ _______ _____ _____    ______ ____
ROOT
ATOM      1  C   VAL A   2      36.494 -58.146   2.046  0.00  0.00    +0.241 C 
ATOM      2  N   GLN A   3      37.545 -58.284   2.851  0.00  0.00    -0.298 N 
ATOM      3  H   GLN A   3      37.396 -58.481   3.861  0.00  0.00    +0.150 HD
ATOM      4  O   VAL A   2      36.609 -57.962   0.835  0.00  0.00    -0.273 OA
ENDROOT
BRANCH   1   5
ATOM      5  CA  VAL A   2      35.114 -58.227   2.689  0.00  0.00    +0.148 C 
BRANCH   5   8
ATOM      6  C   ALA A   1      34.583 -55.845   2.643  0.00  0.00    +0.238 C 
ATOM      7  O   ALA A   1      35.519 -55.575   3.388  0.00  0.00    -0.274 OA
ATOM      8  N   VAL A   2      34.291 -57.088   2.274  0.00  0.00    -0.297 N 
ATOM      9  H   VAL A   2      33.457 -57.256   1.676  0.00  0.00    +0.150 HD
BRANCH   6  10
ATOM     10  CA  ALA A   1      33.689 -54.733   2.084  0.00  0.00    +0.145 C 
ATOM     11  CB  ALA A   1      34.382 -54.032   0.925  0.00  0.00    +0.028 C 
BRANCH  10  12
ATOM     12  N   ALA A   1      33.343 -53.769   3.117  0.00  0.00    -0.238 NA
ATOM     13  H   ALA A   1      33.887 -52.886   3.193  0.00  0.00    +0.142 HD
ENDBRANCH  10  12
ENDBRANCH   6  10
ENDBRANCH   5   8
BRANCH   5  14
ATOM     14  CB  VAL A   2      34.450 -59.559   2.320  0.00  0.00    +0.027 C 
ATOM     15  CG2 VAL A   2      33.148 -59.715   3.079  0.00  0.00    +0.002 C 
ATOM     16  CG1 VAL A   2      35.394 -60.732   2.616  0.00  0.00    +0.002 C 
ENDBRANCH   5  14
ENDBRANCH   1   5
BRANCH   2  17
ATOM     17  CA  GLN A   3      38.905 -58.162   2.332  0.00  0.00    +0.137 C 
BRANCH  17  18
ATOM     18  C   GLN A   3      39.517 -59.527   2.031  0.00  0.00    +0.227 C 
ATOM     19  O   GLN A   3      40.168 -60.143   2.881  0.00  0.00    -0.286 OA
ENDBRANCH  17  18
BRANCH  17  20
ATOM     20  CB  GLN A   3      39.785 -57.364   3.295  0.00  0.00    +0.037 C 
BRANCH  20  21
ATOM     21  CG  GLN A   3      39.235 -55.960   3.603  0.00  0.00    +0.087 C 
BRANCH  21  22
ATOM     22  CD  GLN A   3      39.306 -55.024   2.411  0.00  0.00    +0.219 C 
ATOM     23  OE1 GLN A   3      40.383 -54.573   2.021  0.00  0.00    -0.275 OA
ATOM     24  NE2 GLN A   3      38.151 -54.712   1.837  0.00  0.00    -0.329 N 
ATOM     25 HE21 GLN A   3      37.264 -55.117   2.200  0.00  0.00    +0.145 HD
ATOM     26 HE22 GLN A   3      38.133 -54.063   1.025  0.00  0.00    +0.145 HD
ENDBRANCH  21  22
ENDBRANCH  20  21
ENDBRANCH  17  20
ENDBRANCH   2  17
TORSDOF 10
REMARK  Name = ../refined-set-2016/4fut/4fut_pocket.pdb
REMARK  234 active torsions:
REMARK  status: ('A' for Active; 'I' for Inactive)
REMARK    1  A    between atoms: _1  and  _3
REMARK    2  A    between atoms: _3  and  _4
REMARK    3  A    between atoms: _3  and  _6
REMARK    4  A    between atoms: _6  and  _7
REMARK    5  A    between atoms: _12  and  _13
REMARK    6  A    between atoms: _15  and  _17
REMARK    7  A    between atoms: _17  and  _18
REMARK    8  A    between atoms: _17  and  _20
REMARK    9  A    between atoms: _20  and  _21
REMARK   10  A    between atoms: _24  and  _26
REMARK   11  A    between atoms: _26  and  _27
REMARK   12  A    between atoms: _26  and  _29
REMARK   13  A    between atoms: _29  and  _30
REMARK   14  A    between atoms: _35  and  _36
REMARK   15  A    between atoms: _38  and  _40
REMARK   16  A    between atoms: _40  and  _41
REMARK   17  A    between atoms: _40  and  _43
REMARK   18  A    between atoms: _43  and  _44
REMARK   19  A    between atoms: _47  and  _49
REMARK   20  A    between atoms: _49  and  _50
REMARK   21  A    between atoms: _49  and  _52
REMARK   22  A    between atoms: _52  and  _53
REMARK   23  A    between atoms: _55  and  _57
REMARK   24  A    between atoms: _57  and  _58
REMARK   25  A    between atoms: _60  and  _62
REMARK   26  A    between atoms: _62  and  _63
REMARK   27  A    between atoms: _62  and  _65
REMARK   28  A    between atoms: _65  and  _66
REMARK   29  A    between atoms: _69  and  _71
REMARK   30  A    between atoms: _71  and  _72
REMARK   31  A    between atoms: _71  and  _74
REMARK   32  A    between atoms: _74  and  _75
REMARK   33  A    between atoms: _78  and  _80
REMARK   34  A    between atoms: _80  and  _81
REMARK   35  A    between atoms: _83  and  _85
REMARK   36  A    between atoms: _85  and  _86
REMARK   37  A    between atoms: _85  and  _88
REMARK   38  A    between atoms: _88  and  _89
REMARK   39  A    between atoms: _89  and  _90
REMARK   40  A    between atoms: _90  and  _91
REMARK   41  A    between atoms: _100  and  _102
REMARK   42  A    between atoms: _102  and  _103
REMARK   43  A    between atoms: _102  and  _105
REMARK   44  A    between atoms: _105  and  _106
REMARK   45  A    between atoms: _108  and  _110
REMARK   46  A    between atoms: _110  and  _111
REMARK   47  A    between atoms: _110  and  _119
REMARK   48  A    between atoms: _111  and  _112
REMARK   49  A    between atoms: _112  and  _113
REMARK   50  A    between atoms: _113  and  _114
REMARK   51  A    between atoms: _114  and  _115
REMARK   52  A    between atoms: _121  and  _123
REMARK   53  A    between atoms: _123  and  _124
REMARK   54  A    between atoms: _123  and  _126
REMARK   55  A    between atoms: _126  and  _127
REMARK   56  A    between atoms: _132  and  _134
REMARK   57  A    between atoms: _134  and  _135
REMARK   58  A    between atoms: _134  and  _137
REMARK   59  A    between atoms: _137  and  _138
REMARK   60  A    between atoms: _141  and  _143
REMARK   61  A    between atoms: _143  and  _144
REMARK   62  A    between atoms: _143  and  _146
REMARK   63  A    between atoms: _146  and  _147
REMARK   64  A    between atoms: _153  and  _154
REMARK   65  A    between atoms: _159  and  _161
REMARK   66  A    between atoms: _161  and  _162
REMARK   67  A    between atoms: _161  and  _164
REMARK   68  A    between atoms: _164  and  _165
REMARK   69  A    between atoms: _167  and  _169
REMARK   70  A    between atoms: _169  and  _170
REMARK   71  A    between atoms: _172  and  _174
REMARK   72  A    between atoms: _174  and  _175
REMARK   73  A    between atoms: _174  and  _177
REMARK   74  A    between atoms: _177  and  _178
REMARK   75  A    between atoms: _180  and  _182
REMARK   76  A    between atoms: _182  and  _183
REMARK   77  A    between atoms: _187  and  _188
REMARK   78  A    between atoms: _193  and  _195
REMARK   79  A    between atoms: _195  and  _196
REMARK   80  A    between atoms: _195  and  _198
REMARK   81  A    between atoms: _198  and  _199
REMARK   82  A    between atoms: _202  and  _204
REMARK   83  A    between atoms: _204  and  _205
REMARK   84  A    between atoms: _204  and  _207
REMARK   85  A    between atoms: _207  and  _208
REMARK   86  A    between atoms: _211  and  _213
REMARK   87  A    between atoms: _213  and  _214
REMARK   88  A    between atoms: _213  and  _216
REMARK   89  A    between atoms: _216  and  _217
REMARK   90  A    between atoms: _217  and  _218
REMARK   91  A    between atoms: _221  and  _223
REMARK   92  A    between atoms: _223  and  _224
REMARK   93  A    between atoms: _223  and  _226
REMARK   94  A    between atoms: _226  and  _227
REMARK   95  A    between atoms: _227  and  _228
REMARK   96  A    between atoms: _228  and  _229
REMARK   97  A    between atoms: _238  and  _240
REMARK   98  A    between atoms: _240  and  _241
REMARK   99  A    between atoms: _240  and  _243
REMARK  100  A    between atoms: _243  and  _244
REMARK  101  A    between atoms: _249  and  _250
REMARK  102  A    between atoms: _252  and  _254
REMARK  103  A    between atoms: _254  and  _255
REMARK  104  A    between atoms: _257  and  _259
REMARK  105  A    between atoms: _259  and  _260
REMARK  106  A    between atoms: _259  and  _262
REMARK  107  A    between atoms: _262  and  _263
REMARK  108  A    between atoms: _263  and  _264
REMARK  109  A    between atoms: _266  and  _268
REMARK  110  A    between atoms: _268  and  _269
REMARK  111  A    between atoms: _268  and  _271
REMARK  112  A    between atoms: _271  and  _272
REMARK  113  A    between atoms: _275  and  _277
REMARK  114  A    between atoms: _277  and  _278
REMARK  115  A    between atoms: _277  and  _280
REMARK  116  A    between atoms: _280  and  _281
REMARK  117  A    between atoms: _281  and  _282
REMARK  118  A    between atoms: _285  and  _287
REMARK  119  A    between atoms: _287  and  _288
REMARK  120  A    between atoms: _287  and  _290
REMARK  121  A    between atoms: _290  and  _291
REMARK  122  A    between atoms: _294  and  _296
REMARK  123  A    between atoms: _296  and  _297
REMARK  124  A    between atoms: _296  and  _299
REMARK  125  A    between atoms: _299  and  _300
REMARK  126  A    between atoms: _305  and  _307
REMARK  127  A    between atoms: _307  and  _308
REMARK  128  A    between atoms: _307  and  _310
REMARK  129  A    between atoms: _310  and  _311
REMARK  130  A    between atoms: _311  and  _312
REMARK  131  A    between atoms: _314  and  _316
REMARK  132  A    between atoms: _316  and  _317
REMARK  133  A    between atoms: _316  and  _319
REMARK  134  A    between atoms: _319  and  _320
REMARK  135  A    between atoms: _325  and  _327
REMARK  136  A    between atoms: _327  and  _328
REMARK  137  A    between atoms: _327  and  _330
REMARK  138  A    between atoms: _330  and  _331
REMARK  139  A    between atoms: _334  and  _336
REMARK  140  A    between atoms: _336  and  _337
REMARK  141  A    between atoms: _336  and  _339
REMARK  142  A    between atoms: _339  and  _340
REMARK  143  A    between atoms: _345  and  _347
REMARK  144  A    between atoms: _347  and  _348
REMARK  145  A    between atoms: _350  and  _352
REMARK  146  A    between atoms: _352  and  _353
REMARK  147  A    between atoms: _356  and  _358
REMARK  148  A    between atoms: _358  and  _359
REMARK  149  A    between atoms: _358  and  _361
REMARK  150  A    between atoms: _364  and  _366
REMARK  151  A    between atoms: _366  and  _367
REMARK  152  A    between atoms: _369  and  _371
REMARK  153  A    between atoms: _371  and  _372
REMARK  154  A    between atoms: _371  and  _374
REMARK  155  A    between atoms: _374  and  _375
REMARK  156  A    between atoms: _380  and  _381
REMARK  157  A    between atoms: _383  and  _385
REMARK  158  A    between atoms: _385  and  _386
REMARK  159  A    between atoms: _385  and  _388
REMARK  160  A    between atoms: _388  and  _389
REMARK  161  A    between atoms: _395  and  _397
REMARK  162  A    between atoms: _397  and  _398
REMARK  163  A    between atoms: _397  and  _400
REMARK  164  A    between atoms: _400  and  _401
REMARK  165  A    between atoms: _404  and  _406
REMARK  166  A    between atoms: _406  and  _407
REMARK  167  A    between atoms: _406  and  _409
REMARK  168  A    between atoms: _409  and  _410
REMARK  169  A    between atoms: _413  and  _415
REMARK  170  A    between atoms: _415  and  _416
REMARK  171  A    between atoms: _418  and  _420
REMARK  172  A    between atoms: _420  and  _421
REMARK  173  A    between atoms: _420  and  _423
REMARK  174  A    between atoms: _423  and  _424
REMARK  175  A    between atoms: _427  and  _429
REMARK  176  A    between atoms: _429  and  _430
REMARK  177  A    between atoms: _429  and  _432
REMARK  178  A    between atoms: _432  and  _433
REMARK  179  A    between atoms: _436  and  _438
REMARK  180  A    between atoms: _438  and  _439
REMARK  181  A    between atoms: _438  and  _441
REMARK  182  A    between atoms: _441  and  _442
REMARK  183  A    between atoms: _447  and  _449
REMARK  184  A    between atoms: _449  and  _450
REMARK  185  A    between atoms: _449  and  _452
REMARK  186  A    between atoms: _452  and  _453
REMARK  187  A    between atoms: _456  and  _458
REMARK  188  A    between atoms: _458  and  _459
REMARK  189  A    between atoms: _458  and  _461
REMARK  190  A    between atoms: _461  and  _462
REMARK  191  A    between atoms: _465  and  _467
REMARK  192  A    between atoms: _467  and  _468
REMARK  193  A    between atoms: _470  and  _472
REMARK  194  A    between atoms: _472  and  _473
REMARK  195  A    between atoms: _472  and  _475
REMARK  196  A    between atoms: _475  and  _476
REMARK  197  A    between atoms: _476  and  _477
REMARK  198  A    between atoms: _477  and  _478
REMARK  199  A    between atoms: _487  and  _489
REMARK  200  A    between atoms: _489  and  _490
REMARK  201  A    between atoms: _492  and  _494
REMARK  202  A    between atoms: _494  and  _495
REMARK  203  A    between atoms: _494  and  _497
REMARK  204  A    between atoms: _497  and  _498
REMARK  205  A    between atoms: _501  and  _503
REMARK  206  A    between atoms: _503  and  _504
REMARK  207  A    between atoms: _503  and  _512
REMARK  208  A    between atoms: _504  and  _505
REMARK  209  A    between atoms: _505  and  _506
REMARK  210  A    between atoms: _506  and  _507
REMARK  211  A    between atoms: _507  and  _508
REMARK  212  A    between atoms: _514  and  _516
REMARK  213  A    between atoms: _516  and  _517
REMARK  214  A    between atoms: _516  and  _519
REMARK  215  A    between atoms: _519  and  _520
REMARK  216  A    between atoms: _525  and  _527
REMARK  217  A    between atoms: _527  and  _528
REMARK  218  A    between atoms: _527  and  _530
REMARK  219  A    between atoms: _530  and  _531
REMARK  220  A    between atoms: _531  and  _532
REMARK  221  A    between atoms: _534  and  _536
REMARK  222  A    between atoms: _536  and  _537
REMARK  223  A    between atoms: _540  and  _542
REMARK  224  A    between atoms: _542  and  _543
REMARK  225  A    between atoms: _542  and  _545
REMARK  226  A    between atoms: _548  and  _550
REMARK  227  A    between atoms: _550  and  _551
REMARK  228  A    between atoms: _550  and  _553
REMARK  229  A    between atoms: _553  and  _554
REMARK  230  A    between atoms: _554  and  _555
REMARK  231  A    between atoms: _560  and  _562
REMARK  232  A    between atoms: _562  and  _563
REMARK  233  A    between atoms: _562  and  _565
REMARK  234  A    between atoms: _565  and  _566
REMARK                            x       y       z     vdW  Elec       q    Type
REMARK                         _______ _______ _______ _____ _____    ______ ____
ROOT
ATOM      1  CB  ASN A   1      43.547 -58.298  -0.301  0.00  0.00    +0.110 C 
ENDROOT
BRANCH   1   2
ATOM      2  CG  ASN A   1      42.642 -57.340   0.484  0.00  0.00    +0.221 C 
ATOM      3  OD1 ASN A   1      43.124 -56.440   1.177  0.00  0.00    -0.275 OA
ATOM      4  ND2 ASN A   1      41.329 -57.519   0.361  0.00  0.00    -0.329 N 
ATOM      5 HD21 ASN A   1      40.669 -56.888   0.859  0.00  0.00    +0.145 HD
ATOM      6 HD22 ASN A   1      40.963 -58.290  -0.233  0.00  0.00    +0.145 HD
ENDBRANCH   1   2
BRANCH   1   7
ATOM      7  CA  ASN A   1      43.261 -59.776   0.004  0.00  0.00    +0.142 C 
BRANCH   7   8
ATOM      8  N   ASN A   1      41.832 -60.023   0.011  0.00  0.00    -0.239 NA
ATOM      9  H   ASN A   1      41.182 -59.228  -0.153  0.00  0.00    +0.142 HD
ENDBRANCH   7   8
BRANCH   7  10
ATOM     10  C   ASN A   1      43.854 -60.170   1.352  0.00  0.00    +0.225 C 
ATOM     11  O   ASN A   1      44.901 -60.810   1.418  0.00  0.00    -0.287 OA
ENDBRANCH   7  10
ENDBRANCH   1   7
TORSDOF 4
REMARK  Name = ../refined-set-2016/4fut/4fut_pocket.pdb
REMARK  234 active torsions:
REMARK  status: ('A' for Active; 'I' for Inactive)
REMARK    1  A    between atoms: _1  and  _3
REMARK    2  A    between atoms: _3  and  _4
REMARK    3  A    between atoms: _3  and  _6
REMARK    4  A    between atoms: _6  and  _7
REMARK    5  A    between atoms: _12  and  _13
REMARK    6  A    between atoms: _15  and  _17
REMARK    7  A    between atoms: _17  and  _18
REMARK    8  A    between atoms: _17  and  _20
REMARK    9  A    between atoms: _20  and  _21
REMARK   10  A    between atoms: _24  and  _26
REMARK   11  A    between atoms: _26  and  _27
REMARK   12  A    between atoms: _26  and  _29
REMARK   13  A    between atoms: _29  and  _30
REMARK   14  A    between atoms: _35  and  _36
REMARK   15  A    between atoms: _38  and  _40
REMARK   16  A    between atoms: _40  and  _41
REMARK   17  A    between atoms: _40  and  _43
REMARK   18  A    between atoms: _43  and  _44
REMARK   19  A    between atoms: _47  and  _49
REMARK   20  A    between atoms: _49  and  _50
REMARK   21  A    between atoms: _49  and  _52
REMARK   22  A    between atoms: _52  and  _53
REMARK   23  A    between atoms: _55  and  _57
REMARK   24  A    between atoms: _57  and  _58
REMARK   25  A    between atoms: _60  and  _62
REMARK   26  A    between atoms: _62  and  _63
REMARK   27  A    between atoms: _62  and  _65
REMARK   28  A    between atoms: _65  and  _66
REMARK   29  A    between atoms: _69  and  _71
REMARK   30  A    between atoms: _71  and  _72
REMARK   31  A    between atoms: _71  and  _74
REMARK   32  A    between atoms: _74  and  _75
REMARK   33  A    between atoms: _78  and  _80
REMARK   34  A    between atoms: _80  and  _81
REMARK   35  A    between atoms: _83  and  _85
REMARK   36  A    between atoms: _85  and  _86
REMARK   37  A    between atoms: _85  and  _88
REMARK   38  A    between atoms: _88  and  _89
REMARK   39  A    between atoms: _89  and  _90
REMARK   40  A    between atoms: _90  and  _91
REMARK   41  A    between atoms: _100  and  _102
REMARK   42  A    between atoms: _102  and  _103
REMARK   43  A    between atoms: _102  and  _105
REMARK   44  A    between atoms: _105  and  _106
REMARK   45  A    between atoms: _108  and  _110
REMARK   46  A    between atoms: _110  and  _111
REMARK   47  A    between atoms: _110  and  _119
REMARK   48  A    between atoms: _111  and  _112
REMARK   49  A    between atoms: _112  and  _113
REMARK   50  A    between atoms: _113  and  _114
REMARK   51  A    between atoms: _114  and  _115
REMARK   52  A    between atoms: _121  and  _123
REMARK   53  A    between atoms: _123  and  _124
REMARK   54  A    between atoms: _123  and  _126
REMARK   55  A    between atoms: _126  and  _127
REMARK   56  A    between atoms: _132  and  _134
REMARK   57  A    between atoms: _134  and  _135
REMARK   58  A    between atoms: _134  and  _137
REMARK   59  A    between atoms: _137  and  _138
REMARK   60  A    between atoms: _141  and  _143
REMARK   61  A    between atoms: _143  and  _144
REMARK   62  A    between atoms: _143  and  _146
REMARK   63  A    between atoms: _146  and  _147
REMARK   64  A    between atoms: _153  and  _154
REMARK   65  A    between atoms: _159  and  _161
REMARK   66  A    between atoms: _161  and  _162
REMARK   67  A    between atoms: _161  and  _164
REMARK   68  A    between atoms: _164  and  _165
REMARK   69  A    between atoms: _167  and  _169
REMARK   70  A    between atoms: _169  and  _170
REMARK   71  A    between atoms: _172  and  _174
REMARK   72  A    between atoms: _174  and  _175
REMARK   73  A    between atoms: _174  and  _177
REMARK   74  A    between atoms: _177  and  _178
REMARK   75  A    between atoms: _180  and  _182
REMARK   76  A    between atoms: _182  and  _183
REMARK   77  A    between atoms: _187  and  _188
REMARK   78  A    between atoms: _193  and  _195
REMARK   79  A    between atoms: _195  and  _196
REMARK   80  A    between atoms: _195  and  _198
REMARK   81  A    between atoms: _198  and  _199
REMARK   82  A    between atoms: _202  and  _204
REMARK   83  A    between atoms: _204  and  _205
REMARK   84  A    between atoms: _204  and  _207
REMARK   85  A    between atoms: _207  and  _208
REMARK   86  A    between atoms: _211  and  _213
REMARK   87  A    between atoms: _213  and  _214
REMARK   88  A    between atoms: _213  and  _216
REMARK   89  A    between atoms: _216  and  _217
REMARK   90  A    between atoms: _217  and  _218
REMARK   91  A    between atoms: _221  and  _223
REMARK   92  A    between atoms: _223  and  _224
REMARK   93  A    between atoms: _223  and  _226
REMARK   94  A    between atoms: _226  and  _227
REMARK   95  A    between atoms: _227  and  _228
REMARK   96  A    between atoms: _228  and  _229
REMARK   97  A    between atoms: _238  and  _240
REMARK   98  A    between atoms: _240  and  _241
REMARK   99  A    between atoms: _240  and  _243
REMARK  100  A    between atoms: _243  and  _244
REMARK  101  A    between atoms: _249  and  _250
REMARK  102  A    between atoms: _252  and  _254
REMARK  103  A    between atoms: _254  and  _255
REMARK  104  A    between atoms: _257  and  _259
REMARK  105  A    between atoms: _259  and  _260
REMARK  106  A    between atoms: _259  and  _262
REMARK  107  A    between atoms: _262  and  _263
REMARK  108  A    between atoms: _263  and  _264
REMARK  109  A    between atoms: _266  and  _268
REMARK  110  A    between atoms: _268  and  _269
REMARK  111  A    between atoms: _268  and  _271
REMARK  112  A    between atoms: _271  and  _272
REMARK  113  A    between atoms: _275  and  _277
REMARK  114  A    between atoms: _277  and  _278
REMARK  115  A    between atoms: _277  and  _280
REMARK  116  A    between atoms: _280  and  _281
REMARK  117  A    between atoms: _281  and  _282
REMARK  118  A    between atoms: _285  and  _287
REMARK  119  A    between atoms: _287  and  _288
REMARK  120  A    between atoms: _287  and  _290
REMARK  121  A    between atoms: _290  and  _291
REMARK  122  A    between atoms: _294  and  _296
REMARK  123  A    between atoms: _296  and  _297
REMARK  124  A    between atoms: _296  and  _299
REMARK  125  A    between atoms: _299  and  _300
REMARK  126  A    between atoms: _305  and  _307
REMARK  127  A    between atoms: _307  and  _308
REMARK  128  A    between atoms: _307  and  _310
REMARK  129  A    between atoms: _310  and  _311
REMARK  130  A    between atoms: _311  and  _312
REMARK  131  A    between atoms: _314  and  _316
REMARK  132  A    between atoms: _316  and  _317
REMARK  133  A    between atoms: _316  and  _319
REMARK  134  A    between atoms: _319  and  _320
REMARK  135  A    between atoms: _325  and  _327
REMARK  136  A    between atoms: _327  and  _328
REMARK  137  A    between atoms: _327  and  _330
REMARK  138  A    between atoms: _330  and  _331
REMARK  139  A    between atoms: _334  and  _336
REMARK  140  A    between atoms: _336  and  _337
REMARK  141  A    between atoms: _336  and  _339
REMARK  142  A    between atoms: _339  and  _340
REMARK  143  A    between atoms: _345  and  _347
REMARK  144  A    between atoms: _347  and  _348
REMARK  145  A    between atoms: _350  and  _352
REMARK  146  A    between atoms: _352  and  _353
REMARK  147  A    between atoms: _356  and  _358
REMARK  148  A    between atoms: _358  and  _359
REMARK  149  A    between atoms: _358  and  _361
REMARK  150  A    between atoms: _364  and  _366
REMARK  151  A    between atoms: _366  and  _367
REMARK  152  A    between atoms: _369  and  _371
REMARK  153  A    between atoms: _371  and  _372
REMARK  154  A    between atoms: _371  and  _374
REMARK  155  A    between atoms: _374  and  _375
REMARK  156  A    between atoms: _380  and  _381
REMARK  157  A    between atoms: _383  and  _385
REMARK  158  A    between atoms: _385  and  _386
REMARK  159  A    between atoms: _385  and  _388
REMARK  160  A    between atoms: _388  and  _389
REMARK  161  A    between atoms: _395  and  _397
REMARK  162  A    between atoms: _397  and  _398
REMARK  163  A    between atoms: _397  and  _400
REMARK  164  A    between atoms: _400  and  _401
REMARK  165  A    between atoms: _404  and  _406
REMARK  166  A    between atoms: _406  and  _407
REMARK  167  A    between atoms: _406  and  _409
REMARK  168  A    between atoms: _409  and  _410
REMARK  169  A    between atoms: _413  and  _415
REMARK  170  A    between atoms: _415  and  _416
REMARK  171  A    between atoms: _418  and  _420
REMARK  172  A    between atoms: _420  and  _421
REMARK  173  A    between atoms: _420  and  _423
REMARK  174  A    between atoms: _423  and  _424
REMARK  175  A    between atoms: _427  and  _429
REMARK  176  A    between atoms: _429  and  _430
REMARK  177  A    between atoms: _429  and  _432
REMARK  178  A    between atoms: _432  and  _433
REMARK  179  A    between atoms: _436  and  _438
REMARK  180  A    between atoms: _438  and  _439
REMARK  181  A    between atoms: _438  and  _441
REMARK  182  A    between atoms: _441  and  _442
REMARK  183  A    between atoms: _447  and  _449
REMARK  184  A    between atoms: _449  and  _450
REMARK  185  A    between atoms: _449  and  _452
REMARK  186  A    between atoms: _452  and  _453
REMARK  187  A    between atoms: _456  and  _458
REMARK  188  A    between atoms: _458  and  _459
REMARK  189  A    between atoms: _458  and  _461
REMARK  190  A    between atoms: _461  and  _462
REMARK  191  A    between atoms: _465  and  _467
REMARK  192  A    between atoms: _467  and  _468
REMARK  193  A    between atoms: _470  and  _472
REMARK  194  A    between atoms: _472  and  _473
REMARK  195  A    between atoms: _472  and  _475
REMARK  196  A    between atoms: _475  and  _476
REMARK  197  A    between atoms: _476  and  _477
REMARK  198  A    between atoms: _477  and  _478
REMARK  199  A    between atoms: _487  and  _489
REMARK  200  A    between atoms: _489  and  _490
REMARK  201  A    between atoms: _492  and  _494
REMARK  202  A    between atoms: _494  and  _495
REMARK  203  A    between atoms: _494  and  _497
REMARK  204  A    between atoms: _497  and  _498
REMARK  205  A    between atoms: _501  and  _503
REMARK  206  A    between atoms: _503  and  _504
REMARK  207  A    between atoms: _503  and  _512
REMARK  208  A    between atoms: _504  and  _505
REMARK  209  A    between atoms: _505  and  _506
REMARK  210  A    between atoms: _506  and  _507
REMARK  211  A    between atoms: _507  and  _508
REMARK  212  A    between atoms: _514  and  _516
REMARK  213  A    between atoms: _516  and  _517
REMARK  214  A    between atoms: _516  and  _519
REMARK  215  A    between atoms: _519  and  _520
REMARK  216  A    between atoms: _525  and  _527
REMARK  217  A    between atoms: _527  and  _528
REMARK  218  A    between atoms: _527  and  _530
REMARK  219  A    between atoms: _530  and  _531
REMARK  220  A    between atoms: _531  and  _532
REMARK  221  A    between atoms: _534  and  _536
REMARK  222  A    between atoms: _536  and  _537
REMARK  223  A    between atoms: _540  and  _542
REMARK  224  A    between atoms: _542  and  _543
REMARK  225  A    between atoms: _542  and  _545
REMARK  226  A    between atoms: _548  and  _550
REMARK  227  A    between atoms: _550  and  _551
REMARK  228  A    between atoms: _550  and  _553
REMARK  229  A    between atoms: _553  and  _554
REMARK  230  A    between atoms: _554  and  _555
REMARK  231  A    between atoms: _560  and  _562
REMARK  232  A    between atoms: _562  and  _563
REMARK  233  A    between atoms: _562  and  _565
REMARK  234  A    between atoms: _565  and  _566
REMARK                            x       y       z     vdW  Elec       q    Type
REMARK                         _______ _______ _______ _____ _____    ______ ____
ROOT
ATOM      1 MG   UNL     1      39.341 -50.596  -7.210  0.00  0.00    +0.000 Mg
ATOM      2  O   UNL     1      37.697 -51.803  -8.166  0.00  0.00    +0.000 OA
ATOM      3  O   UNL     1      40.298 -49.887  -9.012  0.00  0.00    +0.000 OA
ENDROOT
TORSDOF 0
REMARK  Name = ../refined-set-2016/4fut/4fut_pocket.pdb
REMARK  234 active torsions:
REMARK  status: ('A' for Active; 'I' for Inactive)
REMARK    1  A    between atoms: _1  and  _3
REMARK    2  A    between atoms: _3  and  _4
REMARK    3  A    between atoms: _3  and  _6
REMARK    4  A    between atoms: _6  and  _7
REMARK    5  A    between atoms: _12  and  _13
REMARK    6  A    between atoms: _15  and  _17
REMARK    7  A    between atoms: _17  and  _18
REMARK    8  A    between atoms: _17  and  _20
REMARK    9  A    between atoms: _20  and  _21
REMARK   10  A    between atoms: _24  and  _26
REMARK   11  A    between atoms: _26  and  _27
REMARK   12  A    between atoms: _26  and  _29
REMARK   13  A    between atoms: _29  and  _30
REMARK   14  A    between atoms: _35  and  _36
REMARK   15  A    between atoms: _38  and  _40
REMARK   16  A    between atoms: _40  and  _41
REMARK   17  A    between atoms: _40  and  _43
REMARK   18  A    between atoms: _43  and  _44
REMARK   19  A    between atoms: _47  and  _49
REMARK   20  A    between atoms: _49  and  _50
REMARK   21  A    between atoms: _49  and  _52
REMARK   22  A    between atoms: _52  and  _53
REMARK   23  A    between atoms: _55  and  _57
REMARK   24  A    between atoms: _57  and  _58
REMARK   25  A    between atoms: _60  and  _62
REMARK   26  A    between atoms: _62  and  _63
REMARK   27  A    between atoms: _62  and  _65
REMARK   28  A    between atoms: _65  and  _66
REMARK   29  A    between atoms: _69  and  _71
REMARK   30  A    between atoms: _71  and  _72
REMARK   31  A    between atoms: _71  and  _74
REMARK   32  A    between atoms: _74  and  _75
REMARK   33  A    between atoms: _78  and  _80
REMARK   34  A    between atoms: _80  and  _81
REMARK   35  A    between atoms: _83  and  _85
REMARK   36  A    between atoms: _85  and  _86
REMARK   37  A    between atoms: _85  and  _88
REMARK   38  A    between atoms: _88  and  _89
REMARK   39  A    between atoms: _89  and  _90
REMARK   40  A    between atoms: _90  and  _91
REMARK   41  A    between atoms: _100  and  _102
REMARK   42  A    between atoms: _102  and  _103
REMARK   43  A    between atoms: _102  and  _105
REMARK   44  A    between atoms: _105  and  _106
REMARK   45  A    between atoms: _108  and  _110
REMARK   46  A    between atoms: _110  and  _111
REMARK   47  A    between atoms: _110  and  _119
REMARK   48  A    between atoms: _111  and  _112
REMARK   49  A    between atoms: _112  and  _113
REMARK   50  A    between atoms: _113  and  _114
REMARK   51  A    between atoms: _114  and  _115
REMARK   52  A    between atoms: _121  and  _123
REMARK   53  A    between atoms: _123  and  _124
REMARK   54  A    between atoms: _123  and  _126
REMARK   55  A    between atoms: _126  and  _127
REMARK   56  A    between atoms: _132  and  _134
REMARK   57  A    between atoms: _134  and  _135
REMARK   58  A    between atoms: _134  and  _137
REMARK   59  A    between atoms: _137  and  _138
REMARK   60  A    between atoms: _141  and  _143
REMARK   61  A    between atoms: _143  and  _144
REMARK   62  A    between atoms: _143  and  _146
REMARK   63  A    between atoms: _146  and  _147
REMARK   64  A    between atoms: _153  and  _154
REMARK   65  A    between atoms: _159  and  _161
REMARK   66  A    between atoms: _161  and  _162
REMARK   67  A    between atoms: _161  and  _164
REMARK   68  A    between atoms: _164  and  _165
REMARK   69  A    between atoms: _167  and  _169
REMARK   70  A    between atoms: _169  and  _170
REMARK   71  A    between atoms: _172  and  _174
REMARK   72  A    between atoms: _174  and  _175
REMARK   73  A    between atoms: _174  and  _177
REMARK   74  A    between atoms: _177  and  _178
REMARK   75  A    between atoms: _180  and  _182
REMARK   76  A    between atoms: _182  and  _183
REMARK   77  A    between atoms: _187  and  _188
REMARK   78  A    between atoms: _193  and  _195
REMARK   79  A    between atoms: _195  and  _196
REMARK   80  A    between atoms: _195  and  _198
REMARK   81  A    between atoms: _198  and  _199
REMARK   82  A    between atoms: _202  and  _204
REMARK   83  A    between atoms: _204  and  _205
REMARK   84  A    between atoms: _204  and  _207
REMARK   85  A    between atoms: _207  and  _208
REMARK   86  A    between atoms: _211  and  _213
REMARK   87  A    between atoms: _213  and  _214
REMARK   88  A    between atoms: _213  and  _216
REMARK   89  A    between atoms: _216  and  _217
REMARK   90  A    between atoms: _217  and  _218
REMARK   91  A    between atoms: _221  and  _223
REMARK   92  A    between atoms: _223  and  _224
REMARK   93  A    between atoms: _223  and  _226
REMARK   94  A    between atoms: _226  and  _227
REMARK   95  A    between atoms: _227  and  _228
REMARK   96  A    between atoms: _228  and  _229
REMARK   97  A    between atoms: _238  and  _240
REMARK   98  A    between atoms: _240  and  _241
REMARK   99  A    between atoms: _240  and  _243
REMARK  100  A    between atoms: _243  and  _244
REMARK  101  A    between atoms: _249  and  _250
REMARK  102  A    between atoms: _252  and  _254
REMARK  103  A    between atoms: _254  and  _255
REMARK  104  A    between atoms: _257  and  _259
REMARK  105  A    between atoms: _259  and  _260
REMARK  106  A    between atoms: _259  and  _262
REMARK  107  A    between atoms: _262  and  _263
REMARK  108  A    between atoms: _263  and  _264
REMARK  109  A    between atoms: _266  and  _268
REMARK  110  A    between atoms: _268  and  _269
REMARK  111  A    between atoms: _268  and  _271
REMARK  112  A    between atoms: _271  and  _272
REMARK  113  A    between atoms: _275  and  _277
REMARK  114  A    between atoms: _277  and  _278
REMARK  115  A    between atoms: _277  and  _280
REMARK  116  A    between atoms: _280  and  _281
REMARK  117  A    between atoms: _281  and  _282
REMARK  118  A    between atoms: _285  and  _287
REMARK  119  A    between atoms: _287  and  _288
REMARK  120  A    between atoms: _287  and  _290
REMARK  121  A    between atoms: _290  and  _291
REMARK  122  A    between atoms: _294  and  _296
REMARK  123  A    between atoms: _296  and  _297
REMARK  124  A    between atoms: _296  and  _299
REMARK  125  A    between atoms: _299  and  _300
REMARK  126  A    between atoms: _305  and  _307
REMARK  127  A    between atoms: _307  and  _308
REMARK  128  A    between atoms: _307  and  _310
REMARK  129  A    between atoms: _310  and  _311
REMARK  130  A    between atoms: _311  and  _312
REMARK  131  A    between atoms: _314  and  _316
REMARK  132  A    between atoms: _316  and  _317
REMARK  133  A    between atoms: _316  and  _319
REMARK  134  A    between atoms: _319  and  _320
REMARK  135  A    between atoms: _325  and  _327
REMARK  136  A    between atoms: _327  and  _328
REMARK  137  A    between atoms: _327  and  _330
REMARK  138  A    between atoms: _330  and  _331
REMARK  139  A    between atoms: _334  and  _336
REMARK  140  A    between atoms: _336  and  _337
REMARK  141  A    between atoms: _336  and  _339
REMARK  142  A    between atoms: _339  and  _340
REMARK  143  A    between atoms: _345  and  _347
REMARK  144  A    between atoms: _347  and  _348
REMARK  145  A    between atoms: _350  and  _352
REMARK  146  A    between atoms: _352  and  _353
REMARK  147  A    between atoms: _356  and  _358
REMARK  148  A    between atoms: _358  and  _359
REMARK  149  A    between atoms: _358  and  _361
REMARK  150  A    between atoms: _364  and  _366
REMARK  151  A    between atoms: _366  and  _367
REMARK  152  A    between atoms: _369  and  _371
REMARK  153  A    between atoms: _371  and  _372
REMARK  154  A    between atoms: _371  and  _374
REMARK  155  A    between atoms: _374  and  _375
REMARK  156  A    between atoms: _380  and  _381
REMARK  157  A    between atoms: _383  and  _385
REMARK  158  A    between atoms: _385  and  _386
REMARK  159  A    between atoms: _385  and  _388
REMARK  160  A    between atoms: _388  and  _389
REMARK  161  A    between atoms: _395  and  _397
REMARK  162  A    between atoms: _397  and  _398
REMARK  163  A    between atoms: _397  and  _400
REMARK  164  A    between atoms: _400  and  _401
REMARK  165  A    between atoms: _404  and  _406
REMARK  166  A    between atoms: _406  and  _407
REMARK  167  A    between atoms: _406  and  _409
REMARK  168  A    between atoms: _409  and  _410
REMARK  169  A    between atoms: _413  and  _415
REMARK  170  A    between atoms: _415  and  _416
REMARK  171  A    between atoms: _418  and  _420
REMARK  172  A    between atoms: _420  and  _421
REMARK  173  A    between atoms: _420  and  _423
REMARK  174  A    between atoms: _423  and  _424
REMARK  175  A    between atoms: _427  and  _429
REMARK  176  A    between atoms: _429  and  _430
REMARK  177  A    between atoms: _429  and  _432
REMARK  178  A    between atoms: _432  and  _433
REMARK  179  A    between atoms: _436  and  _438
REMARK  180  A    between atoms: _438  and  _439
REMARK  181  A    between atoms: _438  and  _441
REMARK  182  A    between atoms: _441  and  _442
REMARK  183  A    between atoms: _447  and  _449
REMARK  184  A    between atoms: _449  and  _450
REMARK  185  A    between atoms: _449  and  _452
REMARK  186  A    between atoms: _452  and  _453
REMARK  187  A    between atoms: _456  and  _458
REMARK  188  A    between atoms: _458  and  _459
REMARK  189  A    between atoms: _458  and  _461
REMARK  190  A    between atoms: _461  and  _462
REMARK  191  A    between atoms: _465  and  _467
REMARK  192  A    between atoms: _467  and  _468
REMARK  193  A    between atoms: _470  and  _472
REMARK  194  A    between atoms: _472  and  _473
REMARK  195  A    between atoms: _472  and  _475
REMARK  196  A    between atoms: _475  and  _476
REMARK  197  A    between atoms: _476  and  _477
REMARK  198  A    between atoms: _477  and  _478
REMARK  199  A    between atoms: _487  and  _489
REMARK  200  A    between atoms: _489  and  _490
REMARK  201  A    between atoms: _492  and  _494
REMARK  202  A    between atoms: _494  and  _495
REMARK  203  A    between atoms: _494  and  _497
REMARK  204  A    between atoms: _497  and  _498
REMARK  205  A    between atoms: _501  and  _503
REMARK  206  A    between atoms: _503  and  _504
REMARK  207  A    between atoms: _503  and  _512
REMARK  208  A    between atoms: _504  and  _505
REMARK  209  A    between atoms: _505  and  _506
REMARK  210  A    between atoms: _506  and  _507
REMARK  211  A    between atoms: _507  and  _508
REMARK  212  A    between atoms: _514  and  _516
REMARK  213  A    between atoms: _516  and  _517
REMARK  214  A    between atoms: _516  and  _519
REMARK  215  A    between atoms: _519  and  _520
REMARK  216  A    between atoms: _525  and  _527
REMARK  217  A    between atoms: _527  and  _528
REMARK  218  A    between atoms: _527  and  _530
REMARK  219  A    between atoms: _530  and  _531
REMARK  220  A    between atoms: _531  and  _532
REMARK  221  A    between atoms: _534  and  _536
REMARK  222  A    between atoms: _536  and  _537
REMARK  223  A    between atoms: _540  and  _542
REMARK  224  A    between atoms: _542  and  _543
REMARK  225  A    between atoms: _542  and  _545
REMARK  226  A    between atoms: _548  and  _550
REMARK  227  A    between atoms: _550  and  _551
REMARK  228  A    between atoms: _550  and  _553
REMARK  229  A    between atoms: _553  and  _554
REMARK  230  A    between atoms: _554  and  _555
REMARK  231  A    between atoms: _560  and  _562
REMARK  232  A    between atoms: _562  and  _563
REMARK  233  A    between atoms: _562  and  _565
REMARK  234  A    between atoms: _565  and  _566
REMARK                            x       y       z     vdW  Elec       q    Type
REMARK                         _______ _______ _______ _____ _____    ______ ____
ROOT
ATOM      1  O   HOH     1      26.425 -57.205  -6.728  0.00  0.00    +0.000 OA
ENDROOT
TORSDOF 0
REMARK  Name = ../refined-set-2016/4fut/4fut_pocket.pdb
REMARK  234 active torsions:
REMARK  status: ('A' for Active; 'I' for Inactive)
REMARK    1  A    between atoms: _1  and  _3
REMARK    2  A    between atoms: _3  and  _4
REMARK    3  A    between atoms: _3  and  _6
REMARK    4  A    between atoms: _6  and  _7
REMARK    5  A    between atoms: _12  and  _13
REMARK    6  A    between atoms: _15  and  _17
REMARK    7  A    between atoms: _17  and  _18
REMARK    8  A    between atoms: _17  and  _20
REMARK    9  A    between atoms: _20  and  _21
REMARK   10  A    between atoms: _24  and  _26
REMARK   11  A    between atoms: _26  and  _27
REMARK   12  A    between atoms: _26  and  _29
REMARK   13  A    between atoms: _29  and  _30
REMARK   14  A    between atoms: _35  and  _36
REMARK   15  A    between atoms: _38  and  _40
REMARK   16  A    between atoms: _40  and  _41
REMARK   17  A    between atoms: _40  and  _43
REMARK   18  A    between atoms: _43  and  _44
REMARK   19  A    between atoms: _47  and  _49
REMARK   20  A    between atoms: _49  and  _50
REMARK   21  A    between atoms: _49  and  _52
REMARK   22  A    between atoms: _52  and  _53
REMARK   23  A    between atoms: _55  and  _57
REMARK   24  A    between atoms: _57  and  _58
REMARK   25  A    between atoms: _60  and  _62
REMARK   26  A    between atoms: _62  and  _63
REMARK   27  A    between atoms: _62  and  _65
REMARK   28  A    between atoms: _65  and  _66
REMARK   29  A    between atoms: _69  and  _71
REMARK   30  A    between atoms: _71  and  _72
REMARK   31  A    between atoms: _71  and  _74
REMARK   32  A    between atoms: _74  and  _75
REMARK   33  A    between atoms: _78  and  _80
REMARK   34  A    between atoms: _80  and  _81
REMARK   35  A    between atoms: _83  and  _85
REMARK   36  A    between atoms: _85  and  _86
REMARK   37  A    between atoms: _85  and  _88
REMARK   38  A    between atoms: _88  and  _89
REMARK   39  A    between atoms: _89  and  _90
REMARK   40  A    between atoms: _90  and  _91
REMARK   41  A    between atoms: _100  and  _102
REMARK   42  A    between atoms: _102  and  _103
REMARK   43  A    between atoms: _102  and  _105
REMARK   44  A    between atoms: _105  and  _106
REMARK   45  A    between atoms: _108  and  _110
REMARK   46  A    between atoms: _110  and  _111
REMARK   47  A    between atoms: _110  and  _119
REMARK   48  A    between atoms: _111  and  _112
REMARK   49  A    between atoms: _112  and  _113
REMARK   50  A    between atoms: _113  and  _114
REMARK   51  A    between atoms: _114  and  _115
REMARK   52  A    between atoms: _121  and  _123
REMARK   53  A    between atoms: _123  and  _124
REMARK   54  A    between atoms: _123  and  _126
REMARK   55  A    between atoms: _126  and  _127
REMARK   56  A    between atoms: _132  and  _134
REMARK   57  A    between atoms: _134  and  _135
REMARK   58  A    between atoms: _134  and  _137
REMARK   59  A    between atoms: _137  and  _138
REMARK   60  A    between atoms: _141  and  _143
REMARK   61  A    between atoms: _143  and  _144
REMARK   62  A    between atoms: _143  and  _146
REMARK   63  A    between atoms: _146  and  _147
REMARK   64  A    between atoms: _153  and  _154
REMARK   65  A    between atoms: _159  and  _161
REMARK   66  A    between atoms: _161  and  _162
REMARK   67  A    between atoms: _161  and  _164
REMARK   68  A    between atoms: _164  and  _165
REMARK   69  A    between atoms: _167  and  _169
REMARK   70  A    between atoms: _169  and  _170
REMARK   71  A    between atoms: _172  and  _174
REMARK   72  A    between atoms: _174  and  _175
REMARK   73  A    between atoms: _174  and  _177
REMARK   74  A    between atoms: _177  and  _178
REMARK   75  A    between atoms: _180  and  _182
REMARK   76  A    between atoms: _182  and  _183
REMARK   77  A    between atoms: _187  and  _188
REMARK   78  A    between atoms: _193  and  _195
REMARK   79  A    between atoms: _195  and  _196
REMARK   80  A    between atoms: _195  and  _198
REMARK   81  A    between atoms: _198  and  _199
REMARK   82  A    between atoms: _202  and  _204
REMARK   83  A    between atoms: _204  and  _205
REMARK   84  A    between atoms: _204  and  _207
REMARK   85  A    between atoms: _207  and  _208
REMARK   86  A    between atoms: _211  and  _213
REMARK   87  A    between atoms: _213  and  _214
REMARK   88  A    between atoms: _213  and  _216
REMARK   89  A    between atoms: _216  and  _217
REMARK   90  A    between atoms: _217  and  _218
REMARK   91  A    between atoms: _221  and  _223
REMARK   92  A    between atoms: _223  and  _224
REMARK   93  A    between atoms: _223  and  _226
REMARK   94  A    between atoms: _226  and  _227
REMARK   95  A    between atoms: _227  and  _228
REMARK   96  A    between atoms: _228  and  _229
REMARK   97  A    between atoms: _238  and  _240
REMARK   98  A    between atoms: _240  and  _241
REMARK   99  A    between atoms: _240  and  _243
REMARK  100  A    between atoms: _243  and  _244
REMARK  101  A    between atoms: _249  and  _250
REMARK  102  A    between atoms: _252  and  _254
REMARK  103  A    between atoms: _254  and  _255
REMARK  104  A    between atoms: _257  and  _259
REMARK  105  A    between atoms: _259  and  _260
REMARK  106  A    between atoms: _259  and  _262
REMARK  107  A    between atoms: _262  and  _263
REMARK  108  A    between atoms: _263  and  _264
REMARK  109  A    between atoms: _266  and  _268
REMARK  110  A    between atoms: _268  and  _269
REMARK  111  A    between atoms: _268  and  _271
REMARK  112  A    between atoms: _271  and  _272
REMARK  113  A    between atoms: _275  and  _277
REMARK  114  A    between atoms: _277  and  _278
REMARK  115  A    between atoms: _277  and  _280
REMARK  116  A    between atoms: _280  and  _281
REMARK  117  A    between atoms: _281  and  _282
REMARK  118  A    between atoms: _285  and  _287
REMARK  119  A    between atoms: _287  and  _288
REMARK  120  A    between atoms: _287  and  _290
REMARK  121  A    between atoms: _290  and  _291
REMARK  122  A    between atoms: _294  and  _296
REMARK  123  A    between atoms: _296  and  _297
REMARK  124  A    between atoms: _296  and  _299
REMARK  125  A    between atoms: _299  and  _300
REMARK  126  A    between atoms: _305  and  _307
REMARK  127  A    between atoms: _307  and  _308
REMARK  128  A    between atoms: _307  and  _310
REMARK  129  A    between atoms: _310  and  _311
REMARK  130  A    between atoms: _311  and  _312
REMARK  131  A    between atoms: _314  and  _316
REMARK  132  A    between atoms: _316  and  _317
REMARK  133  A    between atoms: _316  and  _319
REMARK  134  A    between atoms: _319  and  _320
REMARK  135  A    between atoms: _325  and  _327
REMARK  136  A    between atoms: _327  and  _328
REMARK  137  A    between atoms: _327  and  _330
REMARK  138  A    between atoms: _330  and  _331
REMARK  139  A    between atoms: _334  and  _336
REMARK  140  A    between atoms: _336  and  _337
REMARK  141  A    between atoms: _336  and  _339
REMARK  142  A    between atoms: _339  and  _340
REMARK  143  A    between atoms: _345  and  _347
REMARK  144  A    between atoms: _347  and  _348
REMARK  145  A    between atoms: _350  and  _352
REMARK  146  A    between atoms: _352  and  _353
REMARK  147  A    between atoms: _356  and  _358
REMARK  148  A    between atoms: _358  and  _359
REMARK  149  A    between atoms: _358  and  _361
REMARK  150  A    between atoms: _364  and  _366
REMARK  151  A    between atoms: _366  and  _367
REMARK  152  A    between atoms: _369  and  _371
REMARK  153  A    between atoms: _371  and  _372
REMARK  154  A    between atoms: _371  and  _374
REMARK  155  A    between atoms: _374  and  _375
REMARK  156  A    between atoms: _380  and  _381
REMARK  157  A    between atoms: _383  and  _385
REMARK  158  A    between atoms: _385  and  _386
REMARK  159  A    between atoms: _385  and  _388
REMARK  160  A    between atoms: _388  and  _389
REMARK  161  A    between atoms: _395  and  _397
REMARK  162  A    between atoms: _397  and  _398
REMARK  163  A    between atoms: _397  and  _400
REMARK  164  A    between atoms: _400  and  _401
REMARK  165  A    between atoms: _404  and  _406
REMARK  166  A    between atoms: _406  and  _407
REMARK  167  A    between atoms: _406  and  _409
REMARK  168  A    between atoms: _409  and  _410
REMARK  169  A    between atoms: _413  and  _415
REMARK  170  A    between atoms: _415  and  _416
REMARK  171  A    between atoms: _418  and  _420
REMARK  172  A    between atoms: _420  and  _421
REMARK  173  A    between atoms: _420  and  _423
REMARK  174  A    between atoms: _423  and  _424
REMARK  175  A    between atoms: _427  and  _429
REMARK  176  A    between atoms: _429  and  _430
REMARK  177  A    between atoms: _429  and  _432
REMARK  178  A    between atoms: _432  and  _433
REMARK  179  A    between atoms: _436  and  _438
REMARK  180  A    between atoms: _438  and  _439
REMARK  181  A    between atoms: _438  and  _441
REMARK  182  A    between atoms: _441  and  _442
REMARK  183  A    between atoms: _447  and  _449
REMARK  184  A    between atoms: _449  and  _450
REMARK  185  A    between atoms: _449  and  _452
REMARK  186  A    between atoms: _452  and  _453
REMARK  187  A    between atoms: _456  and  _458
REMARK  188  A    between atoms: _458  and  _459
REMARK  189  A    between atoms: _458  and  _461
REMARK  190  A    between atoms: _461  and  _462
REMARK  191  A    between atoms: _465  and  _467
REMARK  192  A    between atoms: _467  and  _468
REMARK  193  A    between atoms: _470  and  _472
REMARK  194  A    between atoms: _472  and  _473
REMARK  195  A    between atoms: _472  and  _475
REMARK  196  A    between atoms: _475  and  _476
REMARK  197  A    between atoms: _476  and  _477
REMARK  198  A    between atoms: _477  and  _478
REMARK  199  A    between atoms: _487  and  _489
REMARK  200  A    between atoms: _489  and  _490
REMARK  201  A    between atoms: _492  and  _494
REMARK  202  A    between atoms: _494  and  _495
REMARK  203  A    between atoms: _494  and  _497
REMARK  204  A    between atoms: _497  and  _498
REMARK  205  A    between atoms: _501  and  _503
REMARK  206  A    between atoms: _503  and  _504
REMARK  207  A    between atoms: _503  and  _512
REMARK  208  A    between atoms: _504  and  _505
REMARK  209  A    between atoms: _505  and  _506
REMARK  210  A    between atoms: _506  and  _507
REMARK  211  A    between atoms: _507  and  _508
REMARK  212  A    between atoms: _514  and  _516
REMARK  213  A    between atoms: _516  and  _517
REMARK  214  A    between atoms: _516  and  _519
REMARK  215  A    between atoms: _519  and  _520
REMARK  216  A    between atoms: _525  and  _527
REMARK  217  A    between atoms: _527  and  _528
REMARK  218  A    between atoms: _527  and  _530
REMARK  219  A    between atoms: _530  and  _531
REMARK  220  A    between atoms: _531  and  _532
REMARK  221  A    between atoms: _534  and  _536
REMARK  222  A    between atoms: _536  and  _537
REMARK  223  A    between atoms: _540  and  _542
REMARK  224  A    between atoms: _542  and  _543
REMARK  225  A    between atoms: _542  and  _545
REMARK  226  A    between atoms: _548  and  _550
REMARK  227  A    between atoms: _550  and  _551
REMARK  228  A    between atoms: _550  and  _553
REMARK  229  A    between atoms: _553  and  _554
REMARK  230  A    between atoms: _554  and  _555
REMARK  231  A    between atoms: _560  and  _562
REMARK  232  A    between atoms: _562  and  _563
REMARK  233  A    between atoms: _562  and  _565
REMARK  234  A    between atoms: _565  and  _566
REMARK                            x       y       z     vdW  Elec       q    Type
REMARK                         _______ _______ _______ _____ _____    ______ ____
ROOT
ATOM      1  O   HOH     1      28.304 -59.410  -6.769  0.00  0.00    +0.000 OA
ENDROOT
TORSDOF 0
REMARK  Name = ../refined-set-2016/4fut/4fut_pocket.pdb
REMARK  234 active torsions:
REMARK  status: ('A' for Active; 'I' for Inactive)
REMARK    1  A    between atoms: _1  and  _3
REMARK    2  A    between atoms: _3  and  _4
REMARK    3  A    between atoms: _3  and  _6
REMARK    4  A    between atoms: _6  and  _7
REMARK    5  A    between atoms: _12  and  _13
REMARK    6  A    between atoms: _15  and  _17
REMARK    7  A    between atoms: _17  and  _18
REMARK    8  A    between atoms: _17  and  _20
REMARK    9  A    between atoms: _20  and  _21
REMARK   10  A    between atoms: _24  and  _26
REMARK   11  A    between atoms: _26  and  _27
REMARK   12  A    between atoms: _26  and  _29
REMARK   13  A    between atoms: _29  and  _30
REMARK   14  A    between atoms: _35  and  _36
REMARK   15  A    between atoms: _38  and  _40
REMARK   16  A    between atoms: _40  and  _41
REMARK   17  A    between atoms: _40  and  _43
REMARK   18  A    between atoms: _43  and  _44
REMARK   19  A    between atoms: _47  and  _49
REMARK   20  A    between atoms: _49  and  _50
REMARK   21  A    between atoms: _49  and  _52
REMARK   22  A    between atoms: _52  and  _53
REMARK   23  A    between atoms: _55  and  _57
REMARK   24  A    between atoms: _57  and  _58
REMARK   25  A    between atoms: _60  and  _62
REMARK   26  A    between atoms: _62  and  _63
REMARK   27  A    between atoms: _62  and  _65
REMARK   28  A    between atoms: _65  and  _66
REMARK   29  A    between atoms: _69  and  _71
REMARK   30  A    between atoms: _71  and  _72
REMARK   31  A    between atoms: _71  and  _74
REMARK   32  A    between atoms: _74  and  _75
REMARK   33  A    between atoms: _78  and  _80
REMARK   34  A    between atoms: _80  and  _81
REMARK   35  A    between atoms: _83  and  _85
REMARK   36  A    between atoms: _85  and  _86
REMARK   37  A    between atoms: _85  and  _88
REMARK   38  A    between atoms: _88  and  _89
REMARK   39  A    between atoms: _89  and  _90
REMARK   40  A    between atoms: _90  and  _91
REMARK   41  A    between atoms: _100  and  _102
REMARK   42  A    between atoms: _102  and  _103
REMARK   43  A    between atoms: _102  and  _105
REMARK   44  A    between atoms: _105  and  _106
REMARK   45  A    between atoms: _108  and  _110
REMARK   46  A    between atoms: _110  and  _111
REMARK   47  A    between atoms: _110  and  _119
REMARK   48  A    between atoms: _111  and  _112
REMARK   49  A    between atoms: _112  and  _113
REMARK   50  A    between atoms: _113  and  _114
REMARK   51  A    between atoms: _114  and  _115
REMARK   52  A    between atoms: _121  and  _123
REMARK   53  A    between atoms: _123  and  _124
REMARK   54  A    between atoms: _123  and  _126
REMARK   55  A    between atoms: _126  and  _127
REMARK   56  A    between atoms: _132  and  _134
REMARK   57  A    between atoms: _134  and  _135
REMARK   58  A    between atoms: _134  and  _137
REMARK   59  A    between atoms: _137  and  _138
REMARK   60  A    between atoms: _141  and  _143
REMARK   61  A    between atoms: _143  and  _144
REMARK   62  A    between atoms: _143  and  _146
REMARK   63  A    between atoms: _146  and  _147
REMARK   64  A    between atoms: _153  and  _154
REMARK   65  A    between atoms: _159  and  _161
REMARK   66  A    between atoms: _161  and  _162
REMARK   67  A    between atoms: _161  and  _164
REMARK   68  A    between atoms: _164  and  _165
REMARK   69  A    between atoms: _167  and  _169
REMARK   70  A    between atoms: _169  and  _170
REMARK   71  A    between atoms: _172  and  _174
REMARK   72  A    between atoms: _174  and  _175
REMARK   73  A    between atoms: _174  and  _177
REMARK   74  A    between atoms: _177  and  _178
REMARK   75  A    between atoms: _180  and  _182
REMARK   76  A    between atoms: _182  and  _183
REMARK   77  A    between atoms: _187  and  _188
REMARK   78  A    between atoms: _193  and  _195
REMARK   79  A    between atoms: _195  and  _196
REMARK   80  A    between atoms: _195  and  _198
REMARK   81  A    between atoms: _198  and  _199
REMARK   82  A    between atoms: _202  and  _204
REMARK   83  A    between atoms: _204  and  _205
REMARK   84  A    between atoms: _204  and  _207
REMARK   85  A    between atoms: _207  and  _208
REMARK   86  A    between atoms: _211  and  _213
REMARK   87  A    between atoms: _213  and  _214
REMARK   88  A    between atoms: _213  and  _216
REMARK   89  A    between atoms: _216  and  _217
REMARK   90  A    between atoms: _217  and  _218
REMARK   91  A    between atoms: _221  and  _223
REMARK   92  A    between atoms: _223  and  _224
REMARK   93  A    between atoms: _223  and  _226
REMARK   94  A    between atoms: _226  and  _227
REMARK   95  A    between atoms: _227  and  _228
REMARK   96  A    between atoms: _228  and  _229
REMARK   97  A    between atoms: _238  and  _240
REMARK   98  A    between atoms: _240  and  _241
REMARK   99  A    between atoms: _240  and  _243
REMARK  100  A    between atoms: _243  and  _244
REMARK  101  A    between atoms: _249  and  _250
REMARK  102  A    between atoms: _252  and  _254
REMARK  103  A    between atoms: _254  and  _255
REMARK  104  A    between atoms: _257  and  _259
REMARK  105  A    between atoms: _259  and  _260
REMARK  106  A    between atoms: _259  and  _262
REMARK  107  A    between atoms: _262  and  _263
REMARK  108  A    between atoms: _263  and  _264
REMARK  109  A    between atoms: _266  and  _268
REMARK  110  A    between atoms: _268  and  _269
REMARK  111  A    between atoms: _268  and  _271
REMARK  112  A    between atoms: _271  and  _272
REMARK  113  A    between atoms: _275  and  _277
REMARK  114  A    between atoms: _277  and  _278
REMARK  115  A    between atoms: _277  and  _280
REMARK  116  A    between atoms: _280  and  _281
REMARK  117  A    between atoms: _281  and  _282
REMARK  118  A    between atoms: _285  and  _287
REMARK  119  A    between atoms: _287  and  _288
REMARK  120  A    between atoms: _287  and  _290
REMARK  121  A    between atoms: _290  and  _291
REMARK  122  A    between atoms: _294  and  _296
REMARK  123  A    between atoms: _296  and  _297
REMARK  124  A    between atoms: _296  and  _299
REMARK  125  A    between atoms: _299  and  _300
REMARK  126  A    between atoms: _305  and  _307
REMARK  127  A    between atoms: _307  and  _308
REMARK  128  A    between atoms: _307  and  _310
REMARK  129  A    between atoms: _310  and  _311
REMARK  130  A    between atoms: _311  and  _312
REMARK  131  A    between atoms: _314  and  _316
REMARK  132  A    between atoms: _316  and  _317
REMARK  133  A    between atoms: _316  and  _319
REMARK  134  A    between atoms: _319  and  _320
REMARK  135  A    between atoms: _325  and  _327
REMARK  136  A    between atoms: _327  and  _328
REMARK  137  A    between atoms: _327  and  _330
REMARK  138  A    between atoms: _330  and  _331
REMARK  139  A    between atoms: _334  and  _336
REMARK  140  A    between atoms: _336  and  _337
REMARK  141  A    between atoms: _336  and  _339
REMARK  142  A    between atoms: _339  and  _340
REMARK  143  A    between atoms: _345  and  _347
REMARK  144  A    between atoms: _347  and  _348
REMARK  145  A    between atoms: _350  and  _352
REMARK  146  A    between atoms: _352  and  _353
REMARK  147  A    between atoms: _356  and  _358
REMARK  148  A    between atoms: _358  and  _359
REMARK  149  A    between atoms: _358  and  _361
REMARK  150  A    between atoms: _364  and  _366
REMARK  151  A    between atoms: _366  and  _367
REMARK  152  A    between atoms: _369  and  _371
REMARK  153  A    between atoms: _371  and  _372
REMARK  154  A    between atoms: _371  and  _374
REMARK  155  A    between atoms: _374  and  _375
REMARK  156  A    between atoms: _380  and  _381
REMARK  157  A    between atoms: _383  and  _385
REMARK  158  A    between atoms: _385  and  _386
REMARK  159  A    between atoms: _385  and  _388
REMARK  160  A    between atoms: _388  and  _389
REMARK  161  A    between atoms: _395  and  _397
REMARK  162  A    between atoms: _397  and  _398
REMARK  163  A    between atoms: _397  and  _400
REMARK  164  A    between atoms: _400  and  _401
REMARK  165  A    between atoms: _404  and  _406
REMARK  166  A    between atoms: _406  and  _407
REMARK  167  A    between atoms: _406  and  _409
REMARK  168  A    between atoms: _409  and  _410
REMARK  169  A    between atoms: _413  and  _415
REMARK  170  A    between atoms: _415  and  _416
REMARK  171  A    between atoms: _418  and  _420
REMARK  172  A    between atoms: _420  and  _421
REMARK  173  A    between atoms: _420  and  _423
REMARK  174  A    between atoms: _423  and  _424
REMARK  175  A    between atoms: _427  and  _429
REMARK  176  A    between atoms: _429  and  _430
REMARK  177  A    between atoms: _429  and  _432
REMARK  178  A    between atoms: _432  and  _433
REMARK  179  A    between atoms: _436  and  _438
REMARK  180  A    between atoms: _438  and  _439
REMARK  181  A    between atoms: _438  and  _441
REMARK  182  A    between atoms: _441  and  _442
REMARK  183  A    between atoms: _447  and  _449
REMARK  184  A    between atoms: _449  and  _450
REMARK  185  A    between atoms: _449  and  _452
REMARK  186  A    between atoms: _452  and  _453
REMARK  187  A    between atoms: _456  and  _458
REMARK  188  A    between atoms: _458  and  _459
REMARK  189  A    between atoms: _458  and  _461
REMARK  190  A    between atoms: _461  and  _462
REMARK  191  A    between atoms: _465  and  _467
REMARK  192  A    between atoms: _467  and  _468
REMARK  193  A    between atoms: _470  and  _472
REMARK  194  A    between atoms: _472  and  _473
REMARK  195  A    between atoms: _472  and  _475
REMARK  196  A    between atoms: _475  and  _476
REMARK  197  A    between atoms: _476  and  _477
REMARK  198  A    between atoms: _477  and  _478
REMARK  199  A    between atoms: _487  and  _489
REMARK  200  A    between atoms: _489  and  _490
REMARK  201  A    between atoms: _492  and  _494
REMARK  202  A    between atoms: _494  and  _495
REMARK  203  A    between atoms: _494  and  _497
REMARK  204  A    between atoms: _497  and  _498
REMARK  205  A    between atoms: _501  and  _503
REMARK  206  A    between atoms: _503  and  _504
REMARK  207  A    between atoms: _503  and  _512
REMARK  208  A    between atoms: _504  and  _505
REMARK  209  A    between atoms: _505  and  _506
REMARK  210  A    between atoms: _506  and  _507
REMARK  211  A    between atoms: _507  and  _508
REMARK  212  A    between atoms: _514  and  _516
REMARK  213  A    between atoms: _516  and  _517
REMARK  214  A    between atoms: _516  and  _519
REMARK  215  A    between atoms: _519  and  _520
REMARK  216  A    between atoms: _525  and  _527
REMARK  217  A    between atoms: _527  and  _528
REMARK  218  A    between atoms: _527  and  _530
REMARK  219  A    between atoms: _530  and  _531
REMARK  220  A    between atoms: _531  and  _532
REMARK  221  A    between atoms: _534  and  _536
REMARK  222  A    between atoms: _536  and  _537
REMARK  223  A    between atoms: _540  and  _542
REMARK  224  A    between atoms: _542  and  _543
REMARK  225  A    between atoms: _542  and  _545
REMARK  226  A    between atoms: _548  and  _550
REMARK  227  A    between atoms: _550  and  _551
REMARK  228  A    between atoms: _550  and  _553
REMARK  229  A    between atoms: _553  and  _554
REMARK  230  A    between atoms: _554  and  _555
REMARK  231  A    between atoms: _560  and  _562
REMARK  232  A    between atoms: _562  and  _563
REMARK  233  A    between atoms: _562  and  _565
REMARK  234  A    between atoms: _565  and  _566
REMARK                            x       y       z     vdW  Elec       q    Type
REMARK                         _______ _______ _______ _____ _____    ______ ____
ROOT
ATOM      1  O   HOH     1      19.926 -55.874  -6.286  0.00  0.00    +0.000 OA
ENDROOT
TORSDOF 0
REMARK  Name = ../refined-set-2016/4fut/4fut_pocket.pdb
REMARK  234 active torsions:
REMARK  status: ('A' for Active; 'I' for Inactive)
REMARK    1  A    between atoms: _1  and  _3
REMARK    2  A    between atoms: _3  and  _4
REMARK    3  A    between atoms: _3  and  _6
REMARK    4  A    between atoms: _6  and  _7
REMARK    5  A    between atoms: _12  and  _13
REMARK    6  A    between atoms: _15  and  _17
REMARK    7  A    between atoms: _17  and  _18
REMARK    8  A    between atoms: _17  and  _20
REMARK    9  A    between atoms: _20  and  _21
REMARK   10  A    between atoms: _24  and  _26
REMARK   11  A    between atoms: _26  and  _27
REMARK   12  A    between atoms: _26  and  _29
REMARK   13  A    between atoms: _29  and  _30
REMARK   14  A    between atoms: _35  and  _36
REMARK   15  A    between atoms: _38  and  _40
REMARK   16  A    between atoms: _40  and  _41
REMARK   17  A    between atoms: _40  and  _43
REMARK   18  A    between atoms: _43  and  _44
REMARK   19  A    between atoms: _47  and  _49
REMARK   20  A    between atoms: _49  and  _50
REMARK   21  A    between atoms: _49  and  _52
REMARK   22  A    between atoms: _52  and  _53
REMARK   23  A    between atoms: _55  and  _57
REMARK   24  A    between atoms: _57  and  _58
REMARK   25  A    between atoms: _60  and  _62
REMARK   26  A    between atoms: _62  and  _63
REMARK   27  A    between atoms: _62  and  _65
REMARK   28  A    between atoms: _65  and  _66
REMARK   29  A    between atoms: _69  and  _71
REMARK   30  A    between atoms: _71  and  _72
REMARK   31  A    between atoms: _71  and  _74
REMARK   32  A    between atoms: _74  and  _75
REMARK   33  A    between atoms: _78  and  _80
REMARK   34  A    between atoms: _80  and  _81
REMARK   35  A    between atoms: _83  and  _85
REMARK   36  A    between atoms: _85  and  _86
REMARK   37  A    between atoms: _85  and  _88
REMARK   38  A    between atoms: _88  and  _89
REMARK   39  A    between atoms: _89  and  _90
REMARK   40  A    between atoms: _90  and  _91
REMARK   41  A    between atoms: _100  and  _102
REMARK   42  A    between atoms: _102  and  _103
REMARK   43  A    between atoms: _102  and  _105
REMARK   44  A    between atoms: _105  and  _106
REMARK   45  A    between atoms: _108  and  _110
REMARK   46  A    between atoms: _110  and  _111
REMARK   47  A    between atoms: _110  and  _119
REMARK   48  A    between atoms: _111  and  _112
REMARK   49  A    between atoms: _112  and  _113
REMARK   50  A    between atoms: _113  and  _114
REMARK   51  A    between atoms: _114  and  _115
REMARK   52  A    between atoms: _121  and  _123
REMARK   53  A    between atoms: _123  and  _124
REMARK   54  A    between atoms: _123  and  _126
REMARK   55  A    between atoms: _126  and  _127
REMARK   56  A    between atoms: _132  and  _134
REMARK   57  A    between atoms: _134  and  _135
REMARK   58  A    between atoms: _134  and  _137
REMARK   59  A    between atoms: _137  and  _138
REMARK   60  A    between atoms: _141  and  _143
REMARK   61  A    between atoms: _143  and  _144
REMARK   62  A    between atoms: _143  and  _146
REMARK   63  A    between atoms: _146  and  _147
REMARK   64  A    between atoms: _153  and  _154
REMARK   65  A    between atoms: _159  and  _161
REMARK   66  A    between atoms: _161  and  _162
REMARK   67  A    between atoms: _161  and  _164
REMARK   68  A    between atoms: _164  and  _165
REMARK   69  A    between atoms: _167  and  _169
REMARK   70  A    between atoms: _169  and  _170
REMARK   71  A    between atoms: _172  and  _174
REMARK   72  A    between atoms: _174  and  _175
REMARK   73  A    between atoms: _174  and  _177
REMARK   74  A    between atoms: _177  and  _178
REMARK   75  A    between atoms: _180  and  _182
REMARK   76  A    between atoms: _182  and  _183
REMARK   77  A    between atoms: _187  and  _188
REMARK   78  A    between atoms: _193  and  _195
REMARK   79  A    between atoms: _195  and  _196
REMARK   80  A    between atoms: _195  and  _198
REMARK   81  A    between atoms: _198  and  _199
REMARK   82  A    between atoms: _202  and  _204
REMARK   83  A    between atoms: _204  and  _205
REMARK   84  A    between atoms: _204  and  _207
REMARK   85  A    between atoms: _207  and  _208
REMARK   86  A    between atoms: _211  and  _213
REMARK   87  A    between atoms: _213  and  _214
REMARK   88  A    between atoms: _213  and  _216
REMARK   89  A    between atoms: _216  and  _217
REMARK   90  A    between atoms: _217  and  _218
REMARK   91  A    between atoms: _221  and  _223
REMARK   92  A    between atoms: _223  and  _224
REMARK   93  A    between atoms: _223  and  _226
REMARK   94  A    between atoms: _226  and  _227
REMARK   95  A    between atoms: _227  and  _228
REMARK   96  A    between atoms: _228  and  _229
REMARK   97  A    between atoms: _238  and  _240
REMARK   98  A    between atoms: _240  and  _241
REMARK   99  A    between atoms: _240  and  _243
REMARK  100  A    between atoms: _243  and  _244
REMARK  101  A    between atoms: _249  and  _250
REMARK  102  A    between atoms: _252  and  _254
REMARK  103  A    between atoms: _254  and  _255
REMARK  104  A    between atoms: _257  and  _259
REMARK  105  A    between atoms: _259  and  _260
REMARK  106  A    between atoms: _259  and  _262
REMARK  107  A    between atoms: _262  and  _263
REMARK  108  A    between atoms: _263  and  _264
REMARK  109  A    between atoms: _266  and  _268
REMARK  110  A    between atoms: _268  and  _269
REMARK  111  A    between atoms: _268  and  _271
REMARK  112  A    between atoms: _271  and  _272
REMARK  113  A    between atoms: _275  and  _277
REMARK  114  A    between atoms: _277  and  _278
REMARK  115  A    between atoms: _277  and  _280
REMARK  116  A    between atoms: _280  and  _281
REMARK  117  A    between atoms: _281  and  _282
REMARK  118  A    between atoms: _285  and  _287
REMARK  119  A    between atoms: _287  and  _288
REMARK  120  A    between atoms: _287  and  _290
REMARK  121  A    between atoms: _290  and  _291
REMARK  122  A    between atoms: _294  and  _296
REMARK  123  A    between atoms: _296  and  _297
REMARK  124  A    between atoms: _296  and  _299
REMARK  125  A    between atoms: _299  and  _300
REMARK  126  A    between atoms: _305  and  _307
REMARK  127  A    between atoms: _307  and  _308
REMARK  128  A    between atoms: _307  and  _310
REMARK  129  A    between atoms: _310  and  _311
REMARK  130  A    between atoms: _311  and  _312
REMARK  131  A    between atoms: _314  and  _316
REMARK  132  A    between atoms: _316  and  _317
REMARK  133  A    between atoms: _316  and  _319
REMARK  134  A    between atoms: _319  and  _320
REMARK  135  A    between atoms: _325  and  _327
REMARK  136  A    between atoms: _327  and  _328
REMARK  137  A    between atoms: _327  and  _330
REMARK  138  A    between atoms: _330  and  _331
REMARK  139  A    between atoms: _334  and  _336
REMARK  140  A    between atoms: _336  and  _337
REMARK  141  A    between atoms: _336  and  _339
REMARK  142  A    between atoms: _339  and  _340
REMARK  143  A    between atoms: _345  and  _347
REMARK  144  A    between atoms: _347  and  _348
REMARK  145  A    between atoms: _350  and  _352
REMARK  146  A    between atoms: _352  and  _353
REMARK  147  A    between atoms: _356  and  _358
REMARK  148  A    between atoms: _358  and  _359
REMARK  149  A    between atoms: _358  and  _361
REMARK  150  A    between atoms: _364  and  _366
REMARK  151  A    between atoms: _366  and  _367
REMARK  152  A    between atoms: _369  and  _371
REMARK  153  A    between atoms: _371  and  _372
REMARK  154  A    between atoms: _371  and  _374
REMARK  155  A    between atoms: _374  and  _375
REMARK  156  A    between atoms: _380  and  _381
REMARK  157  A    between atoms: _383  and  _385
REMARK  158  A    between atoms: _385  and  _386
REMARK  159  A    between atoms: _385  and  _388
REMARK  160  A    between atoms: _388  and  _389
REMARK  161  A    between atoms: _395  and  _397
REMARK  162  A    between atoms: _397  and  _398
REMARK  163  A    between atoms: _397  and  _400
REMARK  164  A    between atoms: _400  and  _401
REMARK  165  A    between atoms: _404  and  _406
REMARK  166  A    between atoms: _406  and  _407
REMARK  167  A    between atoms: _406  and  _409
REMARK  168  A    between atoms: _409  and  _410
REMARK  169  A    between atoms: _413  and  _415
REMARK  170  A    between atoms: _415  and  _416
REMARK  171  A    between atoms: _418  and  _420
REMARK  172  A    between atoms: _420  and  _421
REMARK  173  A    between atoms: _420  and  _423
REMARK  174  A    between atoms: _423  and  _424
REMARK  175  A    between atoms: _427  and  _429
REMARK  176  A    between atoms: _429  and  _430
REMARK  177  A    between atoms: _429  and  _432
REMARK  178  A    between atoms: _432  and  _433
REMARK  179  A    between atoms: _436  and  _438
REMARK  180  A    between atoms: _438  and  _439
REMARK  181  A    between atoms: _438  and  _441
REMARK  182  A    between atoms: _441  and  _442
REMARK  183  A    between atoms: _447  and  _449
REMARK  184  A    between atoms: _449  and  _450
REMARK  185  A    between atoms: _449  and  _452
REMARK  186  A    between atoms: _452  and  _453
REMARK  187  A    between atoms: _456  and  _458
REMARK  188  A    between atoms: _458  and  _459
REMARK  189  A    between atoms: _458  and  _461
REMARK  190  A    between atoms: _461  and  _462
REMARK  191  A    between atoms: _465  and  _467
REMARK  192  A    between atoms: _467  and  _468
REMARK  193  A    between atoms: _470  and  _472
REMARK  194  A    between atoms: _472  and  _473
REMARK  195  A    between atoms: _472  and  _475
REMARK  196  A    between atoms: _475  and  _476
REMARK  197  A    between atoms: _476  and  _477
REMARK  198  A    between atoms: _477  and  _478
REMARK  199  A    between atoms: _487  and  _489
REMARK  200  A    between atoms: _489  and  _490
REMARK  201  A    between atoms: _492  and  _494
REMARK  202  A    between atoms: _494  and  _495
REMARK  203  A    between atoms: _494  and  _497
REMARK  204  A    between atoms: _497  and  _498
REMARK  205  A    between atoms: _501  and  _503
REMARK  206  A    between atoms: _503  and  _504
REMARK  207  A    between atoms: _503  and  _512
REMARK  208  A    between atoms: _504  and  _505
REMARK  209  A    between atoms: _505  and  _506
REMARK  210  A    between atoms: _506  and  _507
REMARK  211  A    between atoms: _507  and  _508
REMARK  212  A    between atoms: _514  and  _516
REMARK  213  A    between atoms: _516  and  _517
REMARK  214  A    between atoms: _516  and  _519
REMARK  215  A    between atoms: _519  and  _520
REMARK  216  A    between atoms: _525  and  _527
REMARK  217  A    between atoms: _527  and  _528
REMARK  218  A    between atoms: _527  and  _530
REMARK  219  A    between atoms: _530  and  _531
REMARK  220  A    between atoms: _531  and  _532
REMARK  221  A    between atoms: _534  and  _536
REMARK  222  A    between atoms: _536  and  _537
REMARK  223  A    between atoms: _540  and  _542
REMARK  224  A    between atoms: _542  and  _543
REMARK  225  A    between atoms: _542  and  _545
REMARK  226  A    between atoms: _548  and  _550
REMARK  227  A    between atoms: _550  and  _551
REMARK  228  A    between atoms: _550  and  _553
REMARK  229  A    between atoms: _553  and  _554
REMARK  230  A    between atoms: _554  and  _555
REMARK  231  A    between atoms: _560  and  _562
REMARK  232  A    between atoms: _562  and  _563
REMARK  233  A    between atoms: _562  and  _565
REMARK  234  A    between atoms: _565  and  _566
REMARK                            x       y       z     vdW  Elec       q    Type
REMARK                         _______ _______ _______ _____ _____    ______ ____
ROOT
ATOM      1  O   HOH     1      29.005 -49.058  -5.528  0.00  0.00    +0.000 OA
ENDROOT
TORSDOF 0
REMARK  Name = ../refined-set-2016/4fut/4fut_pocket.pdb
REMARK  234 active torsions:
REMARK  status: ('A' for Active; 'I' for Inactive)
REMARK    1  A    between atoms: _1  and  _3
REMARK    2  A    between atoms: _3  and  _4
REMARK    3  A    between atoms: _3  and  _6
REMARK    4  A    between atoms: _6  and  _7
REMARK    5  A    between atoms: _12  and  _13
REMARK    6  A    between atoms: _15  and  _17
REMARK    7  A    between atoms: _17  and  _18
REMARK    8  A    between atoms: _17  and  _20
REMARK    9  A    between atoms: _20  and  _21
REMARK   10  A    between atoms: _24  and  _26
REMARK   11  A    between atoms: _26  and  _27
REMARK   12  A    between atoms: _26  and  _29
REMARK   13  A    between atoms: _29  and  _30
REMARK   14  A    between atoms: _35  and  _36
REMARK   15  A    between atoms: _38  and  _40
REMARK   16  A    between atoms: _40  and  _41
REMARK   17  A    between atoms: _40  and  _43
REMARK   18  A    between atoms: _43  and  _44
REMARK   19  A    between atoms: _47  and  _49
REMARK   20  A    between atoms: _49  and  _50
REMARK   21  A    between atoms: _49  and  _52
REMARK   22  A    between atoms: _52  and  _53
REMARK   23  A    between atoms: _55  and  _57
REMARK   24  A    between atoms: _57  and  _58
REMARK   25  A    between atoms: _60  and  _62
REMARK   26  A    between atoms: _62  and  _63
REMARK   27  A    between atoms: _62  and  _65
REMARK   28  A    between atoms: _65  and  _66
REMARK   29  A    between atoms: _69  and  _71
REMARK   30  A    between atoms: _71  and  _72
REMARK   31  A    between atoms: _71  and  _74
REMARK   32  A    between atoms: _74  and  _75
REMARK   33  A    between atoms: _78  and  _80
REMARK   34  A    between atoms: _80  and  _81
REMARK   35  A    between atoms: _83  and  _85
REMARK   36  A    between atoms: _85  and  _86
REMARK   37  A    between atoms: _85  and  _88
REMARK   38  A    between atoms: _88  and  _89
REMARK   39  A    between atoms: _89  and  _90
REMARK   40  A    between atoms: _90  and  _91
REMARK   41  A    between atoms: _100  and  _102
REMARK   42  A    between atoms: _102  and  _103
REMARK   43  A    between atoms: _102  and  _105
REMARK   44  A    between atoms: _105  and  _106
REMARK   45  A    between atoms: _108  and  _110
REMARK   46  A    between atoms: _110  and  _111
REMARK   47  A    between atoms: _110  and  _119
REMARK   48  A    between atoms: _111  and  _112
REMARK   49  A    between atoms: _112  and  _113
REMARK   50  A    between atoms: _113  and  _114
REMARK   51  A    between atoms: _114  and  _115
REMARK   52  A    between atoms: _121  and  _123
REMARK   53  A    between atoms: _123  and  _124
REMARK   54  A    between atoms: _123  and  _126
REMARK   55  A    between atoms: _126  and  _127
REMARK   56  A    between atoms: _132  and  _134
REMARK   57  A    between atoms: _134  and  _135
REMARK   58  A    between atoms: _134  and  _137
REMARK   59  A    between atoms: _137  and  _138
REMARK   60  A    between atoms: _141  and  _143
REMARK   61  A    between atoms: _143  and  _144
REMARK   62  A    between atoms: _143  and  _146
REMARK   63  A    between atoms: _146  and  _147
REMARK   64  A    between atoms: _153  and  _154
REMARK   65  A    between atoms: _159  and  _161
REMARK   66  A    between atoms: _161  and  _162
REMARK   67  A    between atoms: _161  and  _164
REMARK   68  A    between atoms: _164  and  _165
REMARK   69  A    between atoms: _167  and  _169
REMARK   70  A    between atoms: _169  and  _170
REMARK   71  A    between atoms: _172  and  _174
REMARK   72  A    between atoms: _174  and  _175
REMARK   73  A    between atoms: _174  and  _177
REMARK   74  A    between atoms: _177  and  _178
REMARK   75  A    between atoms: _180  and  _182
REMARK   76  A    between atoms: _182  and  _183
REMARK   77  A    between atoms: _187  and  _188
REMARK   78  A    between atoms: _193  and  _195
REMARK   79  A    between atoms: _195  and  _196
REMARK   80  A    between atoms: _195  and  _198
REMARK   81  A    between atoms: _198  and  _199
REMARK   82  A    between atoms: _202  and  _204
REMARK   83  A    between atoms: _204  and  _205
REMARK   84  A    between atoms: _204  and  _207
REMARK   85  A    between atoms: _207  and  _208
REMARK   86  A    between atoms: _211  and  _213
REMARK   87  A    between atoms: _213  and  _214
REMARK   88  A    between atoms: _213  and  _216
REMARK   89  A    between atoms: _216  and  _217
REMARK   90  A    between atoms: _217  and  _218
REMARK   91  A    between atoms: _221  and  _223
REMARK   92  A    between atoms: _223  and  _224
REMARK   93  A    between atoms: _223  and  _226
REMARK   94  A    between atoms: _226  and  _227
REMARK   95  A    between atoms: _227  and  _228
REMARK   96  A    between atoms: _228  and  _229
REMARK   97  A    between atoms: _238  and  _240
REMARK   98  A    between atoms: _240  and  _241
REMARK   99  A    between atoms: _240  and  _243
REMARK  100  A    between atoms: _243  and  _244
REMARK  101  A    between atoms: _249  and  _250
REMARK  102  A    between atoms: _252  and  _254
REMARK  103  A    between atoms: _254  and  _255
REMARK  104  A    between atoms: _257  and  _259
REMARK  105  A    between atoms: _259  and  _260
REMARK  106  A    between atoms: _259  and  _262
REMARK  107  A    between atoms: _262  and  _263
REMARK  108  A    between atoms: _263  and  _264
REMARK  109  A    between atoms: _266  and  _268
REMARK  110  A    between atoms: _268  and  _269
REMARK  111  A    between atoms: _268  and  _271
REMARK  112  A    between atoms: _271  and  _272
REMARK  113  A    between atoms: _275  and  _277
REMARK  114  A    between atoms: _277  and  _278
REMARK  115  A    between atoms: _277  and  _280
REMARK  116  A    between atoms: _280  and  _281
REMARK  117  A    between atoms: _281  and  _282
REMARK  118  A    between atoms: _285  and  _287
REMARK  119  A    between atoms: _287  and  _288
REMARK  120  A    between atoms: _287  and  _290
REMARK  121  A    between atoms: _290  and  _291
REMARK  122  A    between atoms: _294  and  _296
REMARK  123  A    between atoms: _296  and  _297
REMARK  124  A    between atoms: _296  and  _299
REMARK  125  A    between atoms: _299  and  _300
REMARK  126  A    between atoms: _305  and  _307
REMARK  127  A    between atoms: _307  and  _308
REMARK  128  A    between atoms: _307  and  _310
REMARK  129  A    between atoms: _310  and  _311
REMARK  130  A    between atoms: _311  and  _312
REMARK  131  A    between atoms: _314  and  _316
REMARK  132  A    between atoms: _316  and  _317
REMARK  133  A    between atoms: _316  and  _319
REMARK  134  A    between atoms: _319  and  _320
REMARK  135  A    between atoms: _325  and  _327
REMARK  136  A    between atoms: _327  and  _328
REMARK  137  A    between atoms: _327  and  _330
REMARK  138  A    between atoms: _330  and  _331
REMARK  139  A    between atoms: _334  and  _336
REMARK  140  A    between atoms: _336  and  _337
REMARK  141  A    between atoms: _336  and  _339
REMARK  142  A    between atoms: _339  and  _340
REMARK  143  A    between atoms: _345  and  _347
REMARK  144  A    between atoms: _347  and  _348
REMARK  145  A    between atoms: _350  and  _352
REMARK  146  A    between atoms: _352  and  _353
REMARK  147  A    between atoms: _356  and  _358
REMARK  148  A    between atoms: _358  and  _359
REMARK  149  A    between atoms: _358  and  _361
REMARK  150  A    between atoms: _364  and  _366
REMARK  151  A    between atoms: _366  and  _367
REMARK  152  A    between atoms: _369  and  _371
REMARK  153  A    between atoms: _371  and  _372
REMARK  154  A    between atoms: _371  and  _374
REMARK  155  A    between atoms: _374  and  _375
REMARK  156  A    between atoms: _380  and  _381
REMARK  157  A    between atoms: _383  and  _385
REMARK  158  A    between atoms: _385  and  _386
REMARK  159  A    between atoms: _385  and  _388
REMARK  160  A    between atoms: _388  and  _389
REMARK  161  A    between atoms: _395  and  _397
REMARK  162  A    between atoms: _397  and  _398
REMARK  163  A    between atoms: _397  and  _400
REMARK  164  A    between atoms: _400  and  _401
REMARK  165  A    between atoms: _404  and  _406
REMARK  166  A    between atoms: _406  and  _407
REMARK  167  A    between atoms: _406  and  _409
REMARK  168  A    between atoms: _409  and  _410
REMARK  169  A    between atoms: _413  and  _415
REMARK  170  A    between atoms: _415  and  _416
REMARK  171  A    between atoms: _418  and  _420
REMARK  172  A    between atoms: _420  and  _421
REMARK  173  A    between atoms: _420  and  _423
REMARK  174  A    between atoms: _423  and  _424
REMARK  175  A    between atoms: _427  and  _429
REMARK  176  A    between atoms: _429  and  _430
REMARK  177  A    between atoms: _429  and  _432
REMARK  178  A    between atoms: _432  and  _433
REMARK  179  A    between atoms: _436  and  _438
REMARK  180  A    between atoms: _438  and  _439
REMARK  181  A    between atoms: _438  and  _441
REMARK  182  A    between atoms: _441  and  _442
REMARK  183  A    between atoms: _447  and  _449
REMARK  184  A    between atoms: _449  and  _450
REMARK  185  A    between atoms: _449  and  _452
REMARK  186  A    between atoms: _452  and  _453
REMARK  187  A    between atoms: _456  and  _458
REMARK  188  A    between atoms: _458  and  _459
REMARK  189  A    between atoms: _458  and  _461
REMARK  190  A    between atoms: _461  and  _462
REMARK  191  A    between atoms: _465  and  _467
REMARK  192  A    between atoms: _467  and  _468
REMARK  193  A    between atoms: _470  and  _472
REMARK  194  A    between atoms: _472  and  _473
REMARK  195  A    between atoms: _472  and  _475
REMARK  196  A    between atoms: _475  and  _476
REMARK  197  A    between atoms: _476  and  _477
REMARK  198  A    between atoms: _477  and  _478
REMARK  199  A    between atoms: _487  and  _489
REMARK  200  A    between atoms: _489  and  _490
REMARK  201  A    between atoms: _492  and  _494
REMARK  202  A    between atoms: _494  and  _495
REMARK  203  A    between atoms: _494  and  _497
REMARK  204  A    between atoms: _497  and  _498
REMARK  205  A    between atoms: _501  and  _503
REMARK  206  A    between atoms: _503  and  _504
REMARK  207  A    between atoms: _503  and  _512
REMARK  208  A    between atoms: _504  and  _505
REMARK  209  A    between atoms: _505  and  _506
REMARK  210  A    between atoms: _506  and  _507
REMARK  211  A    between atoms: _507  and  _508
REMARK  212  A    between atoms: _514  and  _516
REMARK  213  A    between atoms: _516  and  _517
REMARK  214  A    between atoms: _516  and  _519
REMARK  215  A    between atoms: _519  and  _520
REMARK  216  A    between atoms: _525  and  _527
REMARK  217  A    between atoms: _527  and  _528
REMARK  218  A    between atoms: _527  and  _530
REMARK  219  A    between atoms: _530  and  _531
REMARK  220  A    between atoms: _531  and  _532
REMARK  221  A    between atoms: _534  and  _536
REMARK  222  A    between atoms: _536  and  _537
REMARK  223  A    between atoms: _540  and  _542
REMARK  224  A    between atoms: _542  and  _543
REMARK  225  A    between atoms: _542  and  _545
REMARK  226  A    between atoms: _548  and  _550
REMARK  227  A    between atoms: _550  and  _551
REMARK  228  A    between atoms: _550  and  _553
REMARK  229  A    between atoms: _553  and  _554
REMARK  230  A    between atoms: _554  and  _555
REMARK  231  A    between atoms: _560  and  _562
REMARK  232  A    between atoms: _562  and  _563
REMARK  233  A    between atoms: _562  and  _565
REMARK  234  A    between atoms: _565  and  _566
REMARK                            x       y       z     vdW  Elec       q    Type
REMARK                         _______ _______ _______ _____ _____    ______ ____
ROOT
ATOM      1  O   HOH     1      25.685 -58.069  -9.335  0.00  0.00    +0.000 OA
ENDROOT
TORSDOF 0
REMARK  Name = ../refined-set-2016/4fut/4fut_pocket.pdb
REMARK  234 active torsions:
REMARK  status: ('A' for Active; 'I' for Inactive)
REMARK    1  A    between atoms: _1  and  _3
REMARK    2  A    between atoms: _3  and  _4
REMARK    3  A    between atoms: _3  and  _6
REMARK    4  A    between atoms: _6  and  _7
REMARK    5  A    between atoms: _12  and  _13
REMARK    6  A    between atoms: _15  and  _17
REMARK    7  A    between atoms: _17  and  _18
REMARK    8  A    between atoms: _17  and  _20
REMARK    9  A    between atoms: _20  and  _21
REMARK   10  A    between atoms: _24  and  _26
REMARK   11  A    between atoms: _26  and  _27
REMARK   12  A    between atoms: _26  and  _29
REMARK   13  A    between atoms: _29  and  _30
REMARK   14  A    between atoms: _35  and  _36
REMARK   15  A    between atoms: _38  and  _40
REMARK   16  A    between atoms: _40  and  _41
REMARK   17  A    between atoms: _40  and  _43
REMARK   18  A    between atoms: _43  and  _44
REMARK   19  A    between atoms: _47  and  _49
REMARK   20  A    between atoms: _49  and  _50
REMARK   21  A    between atoms: _49  and  _52
REMARK   22  A    between atoms: _52  and  _53
REMARK   23  A    between atoms: _55  and  _57
REMARK   24  A    between atoms: _57  and  _58
REMARK   25  A    between atoms: _60  and  _62
REMARK   26  A    between atoms: _62  and  _63
REMARK   27  A    between atoms: _62  and  _65
REMARK   28  A    between atoms: _65  and  _66
REMARK   29  A    between atoms: _69  and  _71
REMARK   30  A    between atoms: _71  and  _72
REMARK   31  A    between atoms: _71  and  _74
REMARK   32  A    between atoms: _74  and  _75
REMARK   33  A    between atoms: _78  and  _80
REMARK   34  A    between atoms: _80  and  _81
REMARK   35  A    between atoms: _83  and  _85
REMARK   36  A    between atoms: _85  and  _86
REMARK   37  A    between atoms: _85  and  _88
REMARK   38  A    between atoms: _88  and  _89
REMARK   39  A    between atoms: _89  and  _90
REMARK   40  A    between atoms: _90  and  _91
REMARK   41  A    between atoms: _100  and  _102
REMARK   42  A    between atoms: _102  and  _103
REMARK   43  A    between atoms: _102  and  _105
REMARK   44  A    between atoms: _105  and  _106
REMARK   45  A    between atoms: _108  and  _110
REMARK   46  A    between atoms: _110  and  _111
REMARK   47  A    between atoms: _110  and  _119
REMARK   48  A    between atoms: _111  and  _112
REMARK   49  A    between atoms: _112  and  _113
REMARK   50  A    between atoms: _113  and  _114
REMARK   51  A    between atoms: _114  and  _115
REMARK   52  A    between atoms: _121  and  _123
REMARK   53  A    between atoms: _123  and  _124
REMARK   54  A    between atoms: _123  and  _126
REMARK   55  A    between atoms: _126  and  _127
REMARK   56  A    between atoms: _132  and  _134
REMARK   57  A    between atoms: _134  and  _135
REMARK   58  A    between atoms: _134  and  _137
REMARK   59  A    between atoms: _137  and  _138
REMARK   60  A    between atoms: _141  and  _143
REMARK   61  A    between atoms: _143  and  _144
REMARK   62  A    between atoms: _143  and  _146
REMARK   63  A    between atoms: _146  and  _147
REMARK   64  A    between atoms: _153  and  _154
REMARK   65  A    between atoms: _159  and  _161
REMARK   66  A    between atoms: _161  and  _162
REMARK   67  A    between atoms: _161  and  _164
REMARK   68  A    between atoms: _164  and  _165
REMARK   69  A    between atoms: _167  and  _169
REMARK   70  A    between atoms: _169  and  _170
REMARK   71  A    between atoms: _172  and  _174
REMARK   72  A    between atoms: _174  and  _175
REMARK   73  A    between atoms: _174  and  _177
REMARK   74  A    between atoms: _177  and  _178
REMARK   75  A    between atoms: _180  and  _182
REMARK   76  A    between atoms: _182  and  _183
REMARK   77  A    between atoms: _187  and  _188
REMARK   78  A    between atoms: _193  and  _195
REMARK   79  A    between atoms: _195  and  _196
REMARK   80  A    between atoms: _195  and  _198
REMARK   81  A    between atoms: _198  and  _199
REMARK   82  A    between atoms: _202  and  _204
REMARK   83  A    between atoms: _204  and  _205
REMARK   84  A    between atoms: _204  and  _207
REMARK   85  A    between atoms: _207  and  _208
REMARK   86  A    between atoms: _211  and  _213
REMARK   87  A    between atoms: _213  and  _214
REMARK   88  A    between atoms: _213  and  _216
REMARK   89  A    between atoms: _216  and  _217
REMARK   90  A    between atoms: _217  and  _218
REMARK   91  A    between atoms: _221  and  _223
REMARK   92  A    between atoms: _223  and  _224
REMARK   93  A    between atoms: _223  and  _226
REMARK   94  A    between atoms: _226  and  _227
REMARK   95  A    between atoms: _227  and  _228
REMARK   96  A    between atoms: _228  and  _229
REMARK   97  A    between atoms: _238  and  _240
REMARK   98  A    between atoms: _240  and  _241
REMARK   99  A    between atoms: _240  and  _243
REMARK  100  A    between atoms: _243  and  _244
REMARK  101  A    between atoms: _249  and  _250
REMARK  102  A    between atoms: _252  and  _254
REMARK  103  A    between atoms: _254  and  _255
REMARK  104  A    between atoms: _257  and  _259
REMARK  105  A    between atoms: _259  and  _260
REMARK  106  A    between atoms: _259  and  _262
REMARK  107  A    between atoms: _262  and  _263
REMARK  108  A    between atoms: _263  and  _264
REMARK  109  A    between atoms: _266  and  _268
REMARK  110  A    between atoms: _268  and  _269
REMARK  111  A    between atoms: _268  and  _271
REMARK  112  A    between atoms: _271  and  _272
REMARK  113  A    between atoms: _275  and  _277
REMARK  114  A    between atoms: _277  and  _278
REMARK  115  A    between atoms: _277  and  _280
REMARK  116  A    between atoms: _280  and  _281
REMARK  117  A    between atoms: _281  and  _282
REMARK  118  A    between atoms: _285  and  _287
REMARK  119  A    between atoms: _287  and  _288
REMARK  120  A    between atoms: _287  and  _290
REMARK  121  A    between atoms: _290  and  _291
REMARK  122  A    between atoms: _294  and  _296
REMARK  123  A    between atoms: _296  and  _297
REMARK  124  A    between atoms: _296  and  _299
REMARK  125  A    between atoms: _299  and  _300
REMARK  126  A    between atoms: _305  and  _307
REMARK  127  A    between atoms: _307  and  _308
REMARK  128  A    between atoms: _307  and  _310
REMARK  129  A    between atoms: _310  and  _311
REMARK  130  A    between atoms: _311  and  _312
REMARK  131  A    between atoms: _314  and  _316
REMARK  132  A    between atoms: _316  and  _317
REMARK  133  A    between atoms: _316  and  _319
REMARK  134  A    between atoms: _319  and  _320
REMARK  135  A    between atoms: _325  and  _327
REMARK  136  A    between atoms: _327  and  _328
REMARK  137  A    between atoms: _327  and  _330
REMARK  138  A    between atoms: _330  and  _331
REMARK  139  A    between atoms: _334  and  _336
REMARK  140  A    between atoms: _336  and  _337
REMARK  141  A    between atoms: _336  and  _339
REMARK  142  A    between atoms: _339  and  _340
REMARK  143  A    between atoms: _345  and  _347
REMARK  144  A    between atoms: _347  and  _348
REMARK  145  A    between atoms: _350  and  _352
REMARK  146  A    between atoms: _352  and  _353
REMARK  147  A    between atoms: _356  and  _358
REMARK  148  A    between atoms: _358  and  _359
REMARK  149  A    between atoms: _358  and  _361
REMARK  150  A    between atoms: _364  and  _366
REMARK  151  A    between atoms: _366  and  _367
REMARK  152  A    between atoms: _369  and  _371
REMARK  153  A    between atoms: _371  and  _372
REMARK  154  A    between atoms: _371  and  _374
REMARK  155  A    between atoms: _374  and  _375
REMARK  156  A    between atoms: _380  and  _381
REMARK  157  A    between atoms: _383  and  _385
REMARK  158  A    between atoms: _385  and  _386
REMARK  159  A    between atoms: _385  and  _388
REMARK  160  A    between atoms: _388  and  _389
REMARK  161  A    between atoms: _395  and  _397
REMARK  162  A    between atoms: _397  and  _398
REMARK  163  A    between atoms: _397  and  _400
REMARK  164  A    between atoms: _400  and  _401
REMARK  165  A    between atoms: _404  and  _406
REMARK  166  A    between atoms: _406  and  _407
REMARK  167  A    between atoms: _406  and  _409
REMARK  168  A    between atoms: _409  and  _410
REMARK  169  A    between atoms: _413  and  _415
REMARK  170  A    between atoms: _415  and  _416
REMARK  171  A    between atoms: _418  and  _420
REMARK  172  A    between atoms: _420  and  _421
REMARK  173  A    between atoms: _420  and  _423
REMARK  174  A    between atoms: _423  and  _424
REMARK  175  A    between atoms: _427  and  _429
REMARK  176  A    between atoms: _429  and  _430
REMARK  177  A    between atoms: _429  and  _432
REMARK  178  A    between atoms: _432  and  _433
REMARK  179  A    between atoms: _436  and  _438
REMARK  180  A    between atoms: _438  and  _439
REMARK  181  A    between atoms: _438  and  _441
REMARK  182  A    between atoms: _441  and  _442
REMARK  183  A    between atoms: _447  and  _449
REMARK  184  A    between atoms: _449  and  _450
REMARK  185  A    between atoms: _449  and  _452
REMARK  186  A    between atoms: _452  and  _453
REMARK  187  A    between atoms: _456  and  _458
REMARK  188  A    between atoms: _458  and  _459
REMARK  189  A    between atoms: _458  and  _461
REMARK  190  A    between atoms: _461  and  _462
REMARK  191  A    between atoms: _465  and  _467
REMARK  192  A    between atoms: _467  and  _468
REMARK  193  A    between atoms: _470  and  _472
REMARK  194  A    between atoms: _472  and  _473
REMARK  195  A    between atoms: _472  and  _475
REMARK  196  A    between atoms: _475  and  _476
REMARK  197  A    between atoms: _476  and  _477
REMARK  198  A    between atoms: _477  and  _478
REMARK  199  A    between atoms: _487  and  _489
REMARK  200  A    between atoms: _489  and  _490
REMARK  201  A    between atoms: _492  and  _494
REMARK  202  A    between atoms: _494  and  _495
REMARK  203  A    between atoms: _494  and  _497
REMARK  204  A    between atoms: _497  and  _498
REMARK  205  A    between atoms: _501  and  _503
REMARK  206  A    between atoms: _503  and  _504
REMARK  207  A    between atoms: _503  and  _512
REMARK  208  A    between atoms: _504  and  _505
REMARK  209  A    between atoms: _505  and  _506
REMARK  210  A    between atoms: _506  and  _507
REMARK  211  A    between atoms: _507  and  _508
REMARK  212  A    between atoms: _514  and  _516
REMARK  213  A    between atoms: _516  and  _517
REMARK  214  A    between atoms: _516  and  _519
REMARK  215  A    between atoms: _519  and  _520
REMARK  216  A    between atoms: _525  and  _527
REMARK  217  A    between atoms: _527  and  _528
REMARK  218  A    between atoms: _527  and  _530
REMARK  219  A    between atoms: _530  and  _531
REMARK  220  A    between atoms: _531  and  _532
REMARK  221  A    between atoms: _534  and  _536
REMARK  222  A    between atoms: _536  and  _537
REMARK  223  A    between atoms: _540  and  _542
REMARK  224  A    between atoms: _542  and  _543
REMARK  225  A    between atoms: _542  and  _545
REMARK  226  A    between atoms: _548  and  _550
REMARK  227  A    between atoms: _550  and  _551
REMARK  228  A    between atoms: _550  and  _553
REMARK  229  A    between atoms: _553  and  _554
REMARK  230  A    between atoms: _554  and  _555
REMARK  231  A    between atoms: _560  and  _562
REMARK  232  A    between atoms: _562  and  _563
REMARK  233  A    between atoms: _562  and  _565
REMARK  234  A    between atoms: _565  and  _566
REMARK                            x       y       z     vdW  Elec       q    Type
REMARK                         _______ _______ _______ _____ _____    ______ ____
ROOT
ATOM      1  O   HOH     1      35.948 -43.290  -2.811  0.00  0.00    +0.000 OA
ENDROOT
TORSDOF 0
REMARK  Name = ../refined-set-2016/4fut/4fut_pocket.pdb
REMARK  234 active torsions:
REMARK  status: ('A' for Active; 'I' for Inactive)
REMARK    1  A    between atoms: _1  and  _3
REMARK    2  A    between atoms: _3  and  _4
REMARK    3  A    between atoms: _3  and  _6
REMARK    4  A    between atoms: _6  and  _7
REMARK    5  A    between atoms: _12  and  _13
REMARK    6  A    between atoms: _15  and  _17
REMARK    7  A    between atoms: _17  and  _18
REMARK    8  A    between atoms: _17  and  _20
REMARK    9  A    between atoms: _20  and  _21
REMARK   10  A    between atoms: _24  and  _26
REMARK   11  A    between atoms: _26  and  _27
REMARK   12  A    between atoms: _26  and  _29
REMARK   13  A    between atoms: _29  and  _30
REMARK   14  A    between atoms: _35  and  _36
REMARK   15  A    between atoms: _38  and  _40
REMARK   16  A    between atoms: _40  and  _41
REMARK   17  A    between atoms: _40  and  _43
REMARK   18  A    between atoms: _43  and  _44
REMARK   19  A    between atoms: _47  and  _49
REMARK   20  A    between atoms: _49  and  _50
REMARK   21  A    between atoms: _49  and  _52
REMARK   22  A    between atoms: _52  and  _53
REMARK   23  A    between atoms: _55  and  _57
REMARK   24  A    between atoms: _57  and  _58
REMARK   25  A    between atoms: _60  and  _62
REMARK   26  A    between atoms: _62  and  _63
REMARK   27  A    between atoms: _62  and  _65
REMARK   28  A    between atoms: _65  and  _66
REMARK   29  A    between atoms: _69  and  _71
REMARK   30  A    between atoms: _71  and  _72
REMARK   31  A    between atoms: _71  and  _74
REMARK   32  A    between atoms: _74  and  _75
REMARK   33  A    between atoms: _78  and  _80
REMARK   34  A    between atoms: _80  and  _81
REMARK   35  A    between atoms: _83  and  _85
REMARK   36  A    between atoms: _85  and  _86
REMARK   37  A    between atoms: _85  and  _88
REMARK   38  A    between atoms: _88  and  _89
REMARK   39  A    between atoms: _89  and  _90
REMARK   40  A    between atoms: _90  and  _91
REMARK   41  A    between atoms: _100  and  _102
REMARK   42  A    between atoms: _102  and  _103
REMARK   43  A    between atoms: _102  and  _105
REMARK   44  A    between atoms: _105  and  _106
REMARK   45  A    between atoms: _108  and  _110
REMARK   46  A    between atoms: _110  and  _111
REMARK   47  A    between atoms: _110  and  _119
REMARK   48  A    between atoms: _111  and  _112
REMARK   49  A    between atoms: _112  and  _113
REMARK   50  A    between atoms: _113  and  _114
REMARK   51  A    between atoms: _114  and  _115
REMARK   52  A    between atoms: _121  and  _123
REMARK   53  A    between atoms: _123  and  _124
REMARK   54  A    between atoms: _123  and  _126
REMARK   55  A    between atoms: _126  and  _127
REMARK   56  A    between atoms: _132  and  _134
REMARK   57  A    between atoms: _134  and  _135
REMARK   58  A    between atoms: _134  and  _137
REMARK   59  A    between atoms: _137  and  _138
REMARK   60  A    between atoms: _141  and  _143
REMARK   61  A    between atoms: _143  and  _144
REMARK   62  A    between atoms: _143  and  _146
REMARK   63  A    between atoms: _146  and  _147
REMARK   64  A    between atoms: _153  and  _154
REMARK   65  A    between atoms: _159  and  _161
REMARK   66  A    between atoms: _161  and  _162
REMARK   67  A    between atoms: _161  and  _164
REMARK   68  A    between atoms: _164  and  _165
REMARK   69  A    between atoms: _167  and  _169
REMARK   70  A    between atoms: _169  and  _170
REMARK   71  A    between atoms: _172  and  _174
REMARK   72  A    between atoms: _174  and  _175
REMARK   73  A    between atoms: _174  and  _177
REMARK   74  A    between atoms: _177  and  _178
REMARK   75  A    between atoms: _180  and  _182
REMARK   76  A    between atoms: _182  and  _183
REMARK   77  A    between atoms: _187  and  _188
REMARK   78  A    between atoms: _193  and  _195
REMARK   79  A    between atoms: _195  and  _196
REMARK   80  A    between atoms: _195  and  _198
REMARK   81  A    between atoms: _198  and  _199
REMARK   82  A    between atoms: _202  and  _204
REMARK   83  A    between atoms: _204  and  _205
REMARK   84  A    between atoms: _204  and  _207
REMARK   85  A    between atoms: _207  and  _208
REMARK   86  A    between atoms: _211  and  _213
REMARK   87  A    between atoms: _213  and  _214
REMARK   88  A    between atoms: _213  and  _216
REMARK   89  A    between atoms: _216  and  _217
REMARK   90  A    between atoms: _217  and  _218
REMARK   91  A    between atoms: _221  and  _223
REMARK   92  A    between atoms: _223  and  _224
REMARK   93  A    between atoms: _223  and  _226
REMARK   94  A    between atoms: _226  and  _227
REMARK   95  A    between atoms: _227  and  _228
REMARK   96  A    between atoms: _228  and  _229
REMARK   97  A    between atoms: _238  and  _240
REMARK   98  A    between atoms: _240  and  _241
REMARK   99  A    between atoms: _240  and  _243
REMARK  100  A    between atoms: _243  and  _244
REMARK  101  A    between atoms: _249  and  _250
REMARK  102  A    between atoms: _252  and  _254
REMARK  103  A    between atoms: _254  and  _255
REMARK  104  A    between atoms: _257  and  _259
REMARK  105  A    between atoms: _259  and  _260
REMARK  106  A    between atoms: _259  and  _262
REMARK  107  A    between atoms: _262  and  _263
REMARK  108  A    between atoms: _263  and  _264
REMARK  109  A    between atoms: _266  and  _268
REMARK  110  A    between atoms: _268  and  _269
REMARK  111  A    between atoms: _268  and  _271
REMARK  112  A    between atoms: _271  and  _272
REMARK  113  A    between atoms: _275  and  _277
REMARK  114  A    between atoms: _277  and  _278
REMARK  115  A    between atoms: _277  and  _280
REMARK  116  A    between atoms: _280  and  _281
REMARK  117  A    between atoms: _281  and  _282
REMARK  118  A    between atoms: _285  and  _287
REMARK  119  A    between atoms: _287  and  _288
REMARK  120  A    between atoms: _287  and  _290
REMARK  121  A    between atoms: _290  and  _291
REMARK  122  A    between atoms: _294  and  _296
REMARK  123  A    between atoms: _296  and  _297
REMARK  124  A    between atoms: _296  and  _299
REMARK  125  A    between atoms: _299  and  _300
REMARK  126  A    between atoms: _305  and  _307
REMARK  127  A    between atoms: _307  and  _308
REMARK  128  A    between atoms: _307  and  _310
REMARK  129  A    between atoms: _310  and  _311
REMARK  130  A    between atoms: _311  and  _312
REMARK  131  A    between atoms: _314  and  _316
REMARK  132  A    between atoms: _316  and  _317
REMARK  133  A    between atoms: _316  and  _319
REMARK  134  A    between atoms: _319  and  _320
REMARK  135  A    between atoms: _325  and  _327
REMARK  136  A    between atoms: _327  and  _328
REMARK  137  A    between atoms: _327  and  _330
REMARK  138  A    between atoms: _330  and  _331
REMARK  139  A    between atoms: _334  and  _336
REMARK  140  A    between atoms: _336  and  _337
REMARK  141  A    between atoms: _336  and  _339
REMARK  142  A    between atoms: _339  and  _340
REMARK  143  A    between atoms: _345  and  _347
REMARK  144  A    between atoms: _347  and  _348
REMARK  145  A    between atoms: _350  and  _352
REMARK  146  A    between atoms: _352  and  _353
REMARK  147  A    between atoms: _356  and  _358
REMARK  148  A    between atoms: _358  and  _359
REMARK  149  A    between atoms: _358  and  _361
REMARK  150  A    between atoms: _364  and  _366
REMARK  151  A    between atoms: _366  and  _367
REMARK  152  A    between atoms: _369  and  _371
REMARK  153  A    between atoms: _371  and  _372
REMARK  154  A    between atoms: _371  and  _374
REMARK  155  A    between atoms: _374  and  _375
REMARK  156  A    between atoms: _380  and  _381
REMARK  157  A    between atoms: _383  and  _385
REMARK  158  A    between atoms: _385  and  _386
REMARK  159  A    between atoms: _385  and  _388
REMARK  160  A    between atoms: _388  and  _389
REMARK  161  A    between atoms: _395  and  _397
REMARK  162  A    between atoms: _397  and  _398
REMARK  163  A    between atoms: _397  and  _400
REMARK  164  A    between atoms: _400  and  _401
REMARK  165  A    between atoms: _404  and  _406
REMARK  166  A    between atoms: _406  and  _407
REMARK  167  A    between atoms: _406  and  _409
REMARK  168  A    between atoms: _409  and  _410
REMARK  169  A    between atoms: _413  and  _415
REMARK  170  A    between atoms: _415  and  _416
REMARK  171  A    between atoms: _418  and  _420
REMARK  172  A    between atoms: _420  and  _421
REMARK  173  A    between atoms: _420  and  _423
REMARK  174  A    between atoms: _423  and  _424
REMARK  175  A    between atoms: _427  and  _429
REMARK  176  A    between atoms: _429  and  _430
REMARK  177  A    between atoms: _429  and  _432
REMARK  178  A    between atoms: _432  and  _433
REMARK  179  A    between atoms: _436  and  _438
REMARK  180  A    between atoms: _438  and  _439
REMARK  181  A    between atoms: _438  and  _441
REMARK  182  A    between atoms: _441  and  _442
REMARK  183  A    between atoms: _447  and  _449
REMARK  184  A    between atoms: _449  and  _450
REMARK  185  A    between atoms: _449  and  _452
REMARK  186  A    between atoms: _452  and  _453
REMARK  187  A    between atoms: _456  and  _458
REMARK  188  A    between atoms: _458  and  _459
REMARK  189  A    between atoms: _458  and  _461
REMARK  190  A    between atoms: _461  and  _462
REMARK  191  A    between atoms: _465  and  _467
REMARK  192  A    between atoms: _467  and  _468
REMARK  193  A    between atoms: _470  and  _472
REMARK  194  A    between atoms: _472  and  _473
REMARK  195  A    between atoms: _472  and  _475
REMARK  196  A    between atoms: _475  and  _476
REMARK  197  A    between atoms: _476  and  _477
REMARK  198  A    between atoms: _477  and  _478
REMARK  199  A    between atoms: _487  and  _489
REMARK  200  A    between atoms: _489  and  _490
REMARK  201  A    between atoms: _492  and  _494
REMARK  202  A    between atoms: _494  and  _495
REMARK  203  A    between atoms: _494  and  _497
REMARK  204  A    between atoms: _497  and  _498
REMARK  205  A    between atoms: _501  and  _503
REMARK  206  A    between atoms: _503  and  _504
REMARK  207  A    between atoms: _503  and  _512
REMARK  208  A    between atoms: _504  and  _505
REMARK  209  A    between atoms: _505  and  _506
REMARK  210  A    between atoms: _506  and  _507
REMARK  211  A    between atoms: _507  and  _508
REMARK  212  A    between atoms: _514  and  _516
REMARK  213  A    between atoms: _516  and  _517
REMARK  214  A    between atoms: _516  and  _519
REMARK  215  A    between atoms: _519  and  _520
REMARK  216  A    between atoms: _525  and  _527
REMARK  217  A    between atoms: _527  and  _528
REMARK  218  A    between atoms: _527  and  _530
REMARK  219  A    between atoms: _530  and  _531
REMARK  220  A    between atoms: _531  and  _532
REMARK  221  A    between atoms: _534  and  _536
REMARK  222  A    between atoms: _536  and  _537
REMARK  223  A    between atoms: _540  and  _542
REMARK  224  A    between atoms: _542  and  _543
REMARK  225  A    between atoms: _542  and  _545
REMARK  226  A    between atoms: _548  and  _550
REMARK  227  A    between atoms: _550  and  _551
REMARK  228  A    between atoms: _550  and  _553
REMARK  229  A    between atoms: _553  and  _554
REMARK  230  A    between atoms: _554  and  _555
REMARK  231  A    between atoms: _560  and  _562
REMARK  232  A    between atoms: _562  and  _563
REMARK  233  A    between atoms: _562  and  _565
REMARK  234  A    between atoms: _565  and  _566
REMARK                            x       y       z     vdW  Elec       q    Type
REMARK                         _______ _______ _______ _____ _____    ______ ____
ROOT
ATOM      1  O   HOH     1      34.228 -40.927  -7.200  0.00  0.00    +0.000 OA
ENDROOT
TORSDOF 0
REMARK  Name = ../refined-set-2016/4fut/4fut_pocket.pdb
REMARK  234 active torsions:
REMARK  status: ('A' for Active; 'I' for Inactive)
REMARK    1  A    between atoms: _1  and  _3
REMARK    2  A    between atoms: _3  and  _4
REMARK    3  A    between atoms: _3  and  _6
REMARK    4  A    between atoms: _6  and  _7
REMARK    5  A    between atoms: _12  and  _13
REMARK    6  A    between atoms: _15  and  _17
REMARK    7  A    between atoms: _17  and  _18
REMARK    8  A    between atoms: _17  and  _20
REMARK    9  A    between atoms: _20  and  _21
REMARK   10  A    between atoms: _24  and  _26
REMARK   11  A    between atoms: _26  and  _27
REMARK   12  A    between atoms: _26  and  _29
REMARK   13  A    between atoms: _29  and  _30
REMARK   14  A    between atoms: _35  and  _36
REMARK   15  A    between atoms: _38  and  _40
REMARK   16  A    between atoms: _40  and  _41
REMARK   17  A    between atoms: _40  and  _43
REMARK   18  A    between atoms: _43  and  _44
REMARK   19  A    between atoms: _47  and  _49
REMARK   20  A    between atoms: _49  and  _50
REMARK   21  A    between atoms: _49  and  _52
REMARK   22  A    between atoms: _52  and  _53
REMARK   23  A    between atoms: _55  and  _57
REMARK   24  A    between atoms: _57  and  _58
REMARK   25  A    between atoms: _60  and  _62
REMARK   26  A    between atoms: _62  and  _63
REMARK   27  A    between atoms: _62  and  _65
REMARK   28  A    between atoms: _65  and  _66
REMARK   29  A    between atoms: _69  and  _71
REMARK   30  A    between atoms: _71  and  _72
REMARK   31  A    between atoms: _71  and  _74
REMARK   32  A    between atoms: _74  and  _75
REMARK   33  A    between atoms: _78  and  _80
REMARK   34  A    between atoms: _80  and  _81
REMARK   35  A    between atoms: _83  and  _85
REMARK   36  A    between atoms: _85  and  _86
REMARK   37  A    between atoms: _85  and  _88
REMARK   38  A    between atoms: _88  and  _89
REMARK   39  A    between atoms: _89  and  _90
REMARK   40  A    between atoms: _90  and  _91
REMARK   41  A    between atoms: _100  and  _102
REMARK   42  A    between atoms: _102  and  _103
REMARK   43  A    between atoms: _102  and  _105
REMARK   44  A    between atoms: _105  and  _106
REMARK   45  A    between atoms: _108  and  _110
REMARK   46  A    between atoms: _110  and  _111
REMARK   47  A    between atoms: _110  and  _119
REMARK   48  A    between atoms: _111  and  _112
REMARK   49  A    between atoms: _112  and  _113
REMARK   50  A    between atoms: _113  and  _114
REMARK   51  A    between atoms: _114  and  _115
REMARK   52  A    between atoms: _121  and  _123
REMARK   53  A    between atoms: _123  and  _124
REMARK   54  A    between atoms: _123  and  _126
REMARK   55  A    between atoms: _126  and  _127
REMARK   56  A    between atoms: _132  and  _134
REMARK   57  A    between atoms: _134  and  _135
REMARK   58  A    between atoms: _134  and  _137
REMARK   59  A    between atoms: _137  and  _138
REMARK   60  A    between atoms: _141  and  _143
REMARK   61  A    between atoms: _143  and  _144
REMARK   62  A    between atoms: _143  and  _146
REMARK   63  A    between atoms: _146  and  _147
REMARK   64  A    between atoms: _153  and  _154
REMARK   65  A    between atoms: _159  and  _161
REMARK   66  A    between atoms: _161  and  _162
REMARK   67  A    between atoms: _161  and  _164
REMARK   68  A    between atoms: _164  and  _165
REMARK   69  A    between atoms: _167  and  _169
REMARK   70  A    between atoms: _169  and  _170
REMARK   71  A    between atoms: _172  and  _174
REMARK   72  A    between atoms: _174  and  _175
REMARK   73  A    between atoms: _174  and  _177
REMARK   74  A    between atoms: _177  and  _178
REMARK   75  A    between atoms: _180  and  _182
REMARK   76  A    between atoms: _182  and  _183
REMARK   77  A    between atoms: _187  and  _188
REMARK   78  A    between atoms: _193  and  _195
REMARK   79  A    between atoms: _195  and  _196
REMARK   80  A    between atoms: _195  and  _198
REMARK   81  A    between atoms: _198  and  _199
REMARK   82  A    between atoms: _202  and  _204
REMARK   83  A    between atoms: _204  and  _205
REMARK   84  A    between atoms: _204  and  _207
REMARK   85  A    between atoms: _207  and  _208
REMARK   86  A    between atoms: _211  and  _213
REMARK   87  A    between atoms: _213  and  _214
REMARK   88  A    between atoms: _213  and  _216
REMARK   89  A    between atoms: _216  and  _217
REMARK   90  A    between atoms: _217  and  _218
REMARK   91  A    between atoms: _221  and  _223
REMARK   92  A    between atoms: _223  and  _224
REMARK   93  A    between atoms: _223  and  _226
REMARK   94  A    between atoms: _226  and  _227
REMARK   95  A    between atoms: _227  and  _228
REMARK   96  A    between atoms: _228  and  _229
REMARK   97  A    between atoms: _238  and  _240
REMARK   98  A    between atoms: _240  and  _241
REMARK   99  A    between atoms: _240  and  _243
REMARK  100  A    between atoms: _243  and  _244
REMARK  101  A    between atoms: _249  and  _250
REMARK  102  A    between atoms: _252  and  _254
REMARK  103  A    between atoms: _254  and  _255
REMARK  104  A    between atoms: _257  and  _259
REMARK  105  A    between atoms: _259  and  _260
REMARK  106  A    between atoms: _259  and  _262
REMARK  107  A    between atoms: _262  and  _263
REMARK  108  A    between atoms: _263  and  _264
REMARK  109  A    between atoms: _266  and  _268
REMARK  110  A    between atoms: _268  and  _269
REMARK  111  A    between atoms: _268  and  _271
REMARK  112  A    between atoms: _271  and  _272
REMARK  113  A    between atoms: _275  and  _277
REMARK  114  A    between atoms: _277  and  _278
REMARK  115  A    between atoms: _277  and  _280
REMARK  116  A    between atoms: _280  and  _281
REMARK  117  A    between atoms: _281  and  _282
REMARK  118  A    between atoms: _285  and  _287
REMARK  119  A    between atoms: _287  and  _288
REMARK  120  A    between atoms: _287  and  _290
REMARK  121  A    between atoms: _290  and  _291
REMARK  122  A    between atoms: _294  and  _296
REMARK  123  A    between atoms: _296  and  _297
REMARK  124  A    between atoms: _296  and  _299
REMARK  125  A    between atoms: _299  and  _300
REMARK  126  A    between atoms: _305  and  _307
REMARK  127  A    between atoms: _307  and  _308
REMARK  128  A    between atoms: _307  and  _310
REMARK  129  A    between atoms: _310  and  _311
REMARK  130  A    between atoms: _311  and  _312
REMARK  131  A    between atoms: _314  and  _316
REMARK  132  A    between atoms: _316  and  _317
REMARK  133  A    between atoms: _316  and  _319
REMARK  134  A    between atoms: _319  and  _320
REMARK  135  A    between atoms: _325  and  _327
REMARK  136  A    between atoms: _327  and  _328
REMARK  137  A    between atoms: _327  and  _330
REMARK  138  A    between atoms: _330  and  _331
REMARK  139  A    between atoms: _334  and  _336
REMARK  140  A    between atoms: _336  and  _337
REMARK  141  A    between atoms: _336  and  _339
REMARK  142  A    between atoms: _339  and  _340
REMARK  143  A    between atoms: _345  and  _347
REMARK  144  A    between atoms: _347  and  _348
REMARK  145  A    between atoms: _350  and  _352
REMARK  146  A    between atoms: _352  and  _353
REMARK  147  A    between atoms: _356  and  _358
REMARK  148  A    between atoms: _358  and  _359
REMARK  149  A    between atoms: _358  and  _361
REMARK  150  A    between atoms: _364  and  _366
REMARK  151  A    between atoms: _366  and  _367
REMARK  152  A    between atoms: _369  and  _371
REMARK  153  A    between atoms: _371  and  _372
REMARK  154  A    between atoms: _371  and  _374
REMARK  155  A    between atoms: _374  and  _375
REMARK  156  A    between atoms: _380  and  _381
REMARK  157  A    between atoms: _383  and  _385
REMARK  158  A    between atoms: _385  and  _386
REMARK  159  A    between atoms: _385  and  _388
REMARK  160  A    between atoms: _388  and  _389
REMARK  161  A    between atoms: _395  and  _397
REMARK  162  A    between atoms: _397  and  _398
REMARK  163  A    between atoms: _397  and  _400
REMARK  164  A    between atoms: _400  and  _401
REMARK  165  A    between atoms: _404  and  _406
REMARK  166  A    between atoms: _406  and  _407
REMARK  167  A    between atoms: _406  and  _409
REMARK  168  A    between atoms: _409  and  _410
REMARK  169  A    between atoms: _413  and  _415
REMARK  170  A    between atoms: _415  and  _416
REMARK  171  A    between atoms: _418  and  _420
REMARK  172  A    between atoms: _420  and  _421
REMARK  173  A    between atoms: _420  and  _423
REMARK  174  A    between atoms: _423  and  _424
REMARK  175  A    between atoms: _427  and  _429
REMARK  176  A    between atoms: _429  and  _430
REMARK  177  A    between atoms: _429  and  _432
REMARK  178  A    between atoms: _432  and  _433
REMARK  179  A    between atoms: _436  and  _438
REMARK  180  A    between atoms: _438  and  _439
REMARK  181  A    between atoms: _438  and  _441
REMARK  182  A    between atoms: _441  and  _442
REMARK  183  A    between atoms: _447  and  _449
REMARK  184  A    between atoms: _449  and  _450
REMARK  185  A    between atoms: _449  and  _452
REMARK  186  A    between atoms: _452  and  _453
REMARK  187  A    between atoms: _456  and  _458
REMARK  188  A    between atoms: _458  and  _459
REMARK  189  A    between atoms: _458  and  _461
REMARK  190  A    between atoms: _461  and  _462
REMARK  191  A    between atoms: _465  and  _467
REMARK  192  A    between atoms: _467  and  _468
REMARK  193  A    between atoms: _470  and  _472
REMARK  194  A    between atoms: _472  and  _473
REMARK  195  A    between atoms: _472  and  _475
REMARK  196  A    between atoms: _475  and  _476
REMARK  197  A    between atoms: _476  and  _477
REMARK  198  A    between atoms: _477  and  _478
REMARK  199  A    between atoms: _487  and  _489
REMARK  200  A    between atoms: _489  and  _490
REMARK  201  A    between atoms: _492  and  _494
REMARK  202  A    between atoms: _494  and  _495
REMARK  203  A    between atoms: _494  and  _497
REMARK  204  A    between atoms: _497  and  _498
REMARK  205  A    between atoms: _501  and  _503
REMARK  206  A    between atoms: _503  and  _504
REMARK  207  A    between atoms: _503  and  _512
REMARK  208  A    between atoms: _504  and  _505
REMARK  209  A    between atoms: _505  and  _506
REMARK  210  A    between atoms: _506  and  _507
REMARK  211  A    between atoms: _507  and  _508
REMARK  212  A    between atoms: _514  and  _516
REMARK  213  A    between atoms: _516  and  _517
REMARK  214  A    between atoms: _516  and  _519
REMARK  215  A    between atoms: _519  and  _520
REMARK  216  A    between atoms: _525  and  _527
REMARK  217  A    between atoms: _527  and  _528
REMARK  218  A    between atoms: _527  and  _530
REMARK  219  A    between atoms: _530  and  _531
REMARK  220  A    between atoms: _531  and  _532
REMARK  221  A    between atoms: _534  and  _536
REMARK  222  A    between atoms: _536  and  _537
REMARK  223  A    between atoms: _540  and  _542
REMARK  224  A    between atoms: _542  and  _543
REMARK  225  A    between atoms: _542  and  _545
REMARK  226  A    between atoms: _548  and  _550
REMARK  227  A    between atoms: _550  and  _551
REMARK  228  A    between atoms: _550  and  _553
REMARK  229  A    between atoms: _553  and  _554
REMARK  230  A    between atoms: _554  and  _555
REMARK  231  A    between atoms: _560  and  _562
REMARK  232  A    between atoms: _562  and  _563
REMARK  233  A    between atoms: _562  and  _565
REMARK  234  A    between atoms: _565  and  _566
REMARK                            x       y       z     vdW  Elec       q    Type
REMARK                         _______ _______ _______ _____ _____    ______ ____
ROOT
ATOM      1  O   HOH     1      25.103 -52.898  -2.729  0.00  0.00    +0.000 OA
ENDROOT
TORSDOF 0
REMARK  Name = ../refined-set-2016/4fut/4fut_pocket.pdb
REMARK  234 active torsions:
REMARK  status: ('A' for Active; 'I' for Inactive)
REMARK    1  A    between atoms: _1  and  _3
REMARK    2  A    between atoms: _3  and  _4
REMARK    3  A    between atoms: _3  and  _6
REMARK    4  A    between atoms: _6  and  _7
REMARK    5  A    between atoms: _12  and  _13
REMARK    6  A    between atoms: _15  and  _17
REMARK    7  A    between atoms: _17  and  _18
REMARK    8  A    between atoms: _17  and  _20
REMARK    9  A    between atoms: _20  and  _21
REMARK   10  A    between atoms: _24  and  _26
REMARK   11  A    between atoms: _26  and  _27
REMARK   12  A    between atoms: _26  and  _29
REMARK   13  A    between atoms: _29  and  _30
REMARK   14  A    between atoms: _35  and  _36
REMARK   15  A    between atoms: _38  and  _40
REMARK   16  A    between atoms: _40  and  _41
REMARK   17  A    between atoms: _40  and  _43
REMARK   18  A    between atoms: _43  and  _44
REMARK   19  A    between atoms: _47  and  _49
REMARK   20  A    between atoms: _49  and  _50
REMARK   21  A    between atoms: _49  and  _52
REMARK   22  A    between atoms: _52  and  _53
REMARK   23  A    between atoms: _55  and  _57
REMARK   24  A    between atoms: _57  and  _58
REMARK   25  A    between atoms: _60  and  _62
REMARK   26  A    between atoms: _62  and  _63
REMARK   27  A    between atoms: _62  and  _65
REMARK   28  A    between atoms: _65  and  _66
REMARK   29  A    between atoms: _69  and  _71
REMARK   30  A    between atoms: _71  and  _72
REMARK   31  A    between atoms: _71  and  _74
REMARK   32  A    between atoms: _74  and  _75
REMARK   33  A    between atoms: _78  and  _80
REMARK   34  A    between atoms: _80  and  _81
REMARK   35  A    between atoms: _83  and  _85
REMARK   36  A    between atoms: _85  and  _86
REMARK   37  A    between atoms: _85  and  _88
REMARK   38  A    between atoms: _88  and  _89
REMARK   39  A    between atoms: _89  and  _90
REMARK   40  A    between atoms: _90  and  _91
REMARK   41  A    between atoms: _100  and  _102
REMARK   42  A    between atoms: _102  and  _103
REMARK   43  A    between atoms: _102  and  _105
REMARK   44  A    between atoms: _105  and  _106
REMARK   45  A    between atoms: _108  and  _110
REMARK   46  A    between atoms: _110  and  _111
REMARK   47  A    between atoms: _110  and  _119
REMARK   48  A    between atoms: _111  and  _112
REMARK   49  A    between atoms: _112  and  _113
REMARK   50  A    between atoms: _113  and  _114
REMARK   51  A    between atoms: _114  and  _115
REMARK   52  A    between atoms: _121  and  _123
REMARK   53  A    between atoms: _123  and  _124
REMARK   54  A    between atoms: _123  and  _126
REMARK   55  A    between atoms: _126  and  _127
REMARK   56  A    between atoms: _132  and  _134
REMARK   57  A    between atoms: _134  and  _135
REMARK   58  A    between atoms: _134  and  _137
REMARK   59  A    between atoms: _137  and  _138
REMARK   60  A    between atoms: _141  and  _143
REMARK   61  A    between atoms: _143  and  _144
REMARK   62  A    between atoms: _143  and  _146
REMARK   63  A    between atoms: _146  and  _147
REMARK   64  A    between atoms: _153  and  _154
REMARK   65  A    between atoms: _159  and  _161
REMARK   66  A    between atoms: _161  and  _162
REMARK   67  A    between atoms: _161  and  _164
REMARK   68  A    between atoms: _164  and  _165
REMARK   69  A    between atoms: _167  and  _169
REMARK   70  A    between atoms: _169  and  _170
REMARK   71  A    between atoms: _172  and  _174
REMARK   72  A    between atoms: _174  and  _175
REMARK   73  A    between atoms: _174  and  _177
REMARK   74  A    between atoms: _177  and  _178
REMARK   75  A    between atoms: _180  and  _182
REMARK   76  A    between atoms: _182  and  _183
REMARK   77  A    between atoms: _187  and  _188
REMARK   78  A    between atoms: _193  and  _195
REMARK   79  A    between atoms: _195  and  _196
REMARK   80  A    between atoms: _195  and  _198
REMARK   81  A    between atoms: _198  and  _199
REMARK   82  A    between atoms: _202  and  _204
REMARK   83  A    between atoms: _204  and  _205
REMARK   84  A    between atoms: _204  and  _207
REMARK   85  A    between atoms: _207  and  _208
REMARK   86  A    between atoms: _211  and  _213
REMARK   87  A    between atoms: _213  and  _214
REMARK   88  A    between atoms: _213  and  _216
REMARK   89  A    between atoms: _216  and  _217
REMARK   90  A    between atoms: _217  and  _218
REMARK   91  A    between atoms: _221  and  _223
REMARK   92  A    between atoms: _223  and  _224
REMARK   93  A    between atoms: _223  and  _226
REMARK   94  A    between atoms: _226  and  _227
REMARK   95  A    between atoms: _227  and  _228
REMARK   96  A    between atoms: _228  and  _229
REMARK   97  A    between atoms: _238  and  _240
REMARK   98  A    between atoms: _240  and  _241
REMARK   99  A    between atoms: _240  and  _243
REMARK  100  A    between atoms: _243  and  _244
REMARK  101  A    between atoms: _249  and  _250
REMARK  102  A    between atoms: _252  and  _254
REMARK  103  A    between atoms: _254  and  _255
REMARK  104  A    between atoms: _257  and  _259
REMARK  105  A    between atoms: _259  and  _260
REMARK  106  A    between atoms: _259  and  _262
REMARK  107  A    between atoms: _262  and  _263
REMARK  108  A    between atoms: _263  and  _264
REMARK  109  A    between atoms: _266  and  _268
REMARK  110  A    between atoms: _268  and  _269
REMARK  111  A    between atoms: _268  and  _271
REMARK  112  A    between atoms: _271  and  _272
REMARK  113  A    between atoms: _275  and  _277
REMARK  114  A    between atoms: _277  and  _278
REMARK  115  A    between atoms: _277  and  _280
REMARK  116  A    between atoms: _280  and  _281
REMARK  117  A    between atoms: _281  and  _282
REMARK  118  A    between atoms: _285  and  _287
REMARK  119  A    between atoms: _287  and  _288
REMARK  120  A    between atoms: _287  and  _290
REMARK  121  A    between atoms: _290  and  _291
REMARK  122  A    between atoms: _294  and  _296
REMARK  123  A    between atoms: _296  and  _297
REMARK  124  A    between atoms: _296  and  _299
REMARK  125  A    between atoms: _299  and  _300
REMARK  126  A    between atoms: _305  and  _307
REMARK  127  A    between atoms: _307  and  _308
REMARK  128  A    between atoms: _307  and  _310
REMARK  129  A    between atoms: _310  and  _311
REMARK  130  A    between atoms: _311  and  _312
REMARK  131  A    between atoms: _314  and  _316
REMARK  132  A    between atoms: _316  and  _317
REMARK  133  A    between atoms: _316  and  _319
REMARK  134  A    between atoms: _319  and  _320
REMARK  135  A    between atoms: _325  and  _327
REMARK  136  A    between atoms: _327  and  _328
REMARK  137  A    between atoms: _327  and  _330
REMARK  138  A    between atoms: _330  and  _331
REMARK  139  A    between atoms: _334  and  _336
REMARK  140  A    between atoms: _336  and  _337
REMARK  141  A    between atoms: _336  and  _339
REMARK  142  A    between atoms: _339  and  _340
REMARK  143  A    between atoms: _345  and  _347
REMARK  144  A    between atoms: _347  and  _348
REMARK  145  A    between atoms: _350  and  _352
REMARK  146  A    between atoms: _352  and  _353
REMARK  147  A    between atoms: _356  and  _358
REMARK  148  A    between atoms: _358  and  _359
REMARK  149  A    between atoms: _358  and  _361
REMARK  150  A    between atoms: _364  and  _366
REMARK  151  A    between atoms: _366  and  _367
REMARK  152  A    between atoms: _369  and  _371
REMARK  153  A    between atoms: _371  and  _372
REMARK  154  A    between atoms: _371  and  _374
REMARK  155  A    between atoms: _374  and  _375
REMARK  156  A    between atoms: _380  and  _381
REMARK  157  A    between atoms: _383  and  _385
REMARK  158  A    between atoms: _385  and  _386
REMARK  159  A    between atoms: _385  and  _388
REMARK  160  A    between atoms: _388  and  _389
REMARK  161  A    between atoms: _395  and  _397
REMARK  162  A    between atoms: _397  and  _398
REMARK  163  A    between atoms: _397  and  _400
REMARK  164  A    between atoms: _400  and  _401
REMARK  165  A    between atoms: _404  and  _406
REMARK  166  A    between atoms: _406  and  _407
REMARK  167  A    between atoms: _406  and  _409
REMARK  168  A    between atoms: _409  and  _410
REMARK  169  A    between atoms: _413  and  _415
REMARK  170  A    between atoms: _415  and  _416
REMARK  171  A    between atoms: _418  and  _420
REMARK  172  A    between atoms: _420  and  _421
REMARK  173  A    between atoms: _420  and  _423
REMARK  174  A    between atoms: _423  and  _424
REMARK  175  A    between atoms: _427  and  _429
REMARK  176  A    between atoms: _429  and  _430
REMARK  177  A    between atoms: _429  and  _432
REMARK  178  A    between atoms: _432  and  _433
REMARK  179  A    between atoms: _436  and  _438
REMARK  180  A    between atoms: _438  and  _439
REMARK  181  A    between atoms: _438  and  _441
REMARK  182  A    between atoms: _441  and  _442
REMARK  183  A    between atoms: _447  and  _449
REMARK  184  A    between atoms: _449  and  _450
REMARK  185  A    between atoms: _449  and  _452
REMARK  186  A    between atoms: _452  and  _453
REMARK  187  A    between atoms: _456  and  _458
REMARK  188  A    between atoms: _458  and  _459
REMARK  189  A    between atoms: _458  and  _461
REMARK  190  A    between atoms: _461  and  _462
REMARK  191  A    between atoms: _465  and  _467
REMARK  192  A    between atoms: _467  and  _468
REMARK  193  A    between atoms: _470  and  _472
REMARK  194  A    between atoms: _472  and  _473
REMARK  195  A    between atoms: _472  and  _475
REMARK  196  A    between atoms: _475  and  _476
REMARK  197  A    between atoms: _476  and  _477
REMARK  198  A    between atoms: _477  and  _478
REMARK  199  A    between atoms: _487  and  _489
REMARK  200  A    between atoms: _489  and  _490
REMARK  201  A    between atoms: _492  and  _494
REMARK  202  A    between atoms: _494  and  _495
REMARK  203  A    between atoms: _494  and  _497
REMARK  204  A    between atoms: _497  and  _498
REMARK  205  A    between atoms: _501  and  _503
REMARK  206  A    between atoms: _503  and  _504
REMARK  207  A    between atoms: _503  and  _512
REMARK  208  A    between atoms: _504  and  _505
REMARK  209  A    between atoms: _505  and  _506
REMARK  210  A    between atoms: _506  and  _507
REMARK  211  A    between atoms: _507  and  _508
REMARK  212  A    between atoms: _514  and  _516
REMARK  213  A    between atoms: _516  and  _517
REMARK  214  A    between atoms: _516  and  _519
REMARK  215  A    between atoms: _519  and  _520
REMARK  216  A    between atoms: _525  and  _527
REMARK  217  A    between atoms: _527  and  _528
REMARK  218  A    between atoms: _527  and  _530
REMARK  219  A    between atoms: _530  and  _531
REMARK  220  A    between atoms: _531  and  _532
REMARK  221  A    between atoms: _534  and  _536
REMARK  222  A    between atoms: _536  and  _537
REMARK  223  A    between atoms: _540  and  _542
REMARK  224  A    between atoms: _542  and  _543
REMARK  225  A    between atoms: _542  and  _545
REMARK  226  A    between atoms: _548  and  _550
REMARK  227  A    between atoms: _550  and  _551
REMARK  228  A    between atoms: _550  and  _553
REMARK  229  A    between atoms: _553  and  _554
REMARK  230  A    between atoms: _554  and  _555
REMARK  231  A    between atoms: _560  and  _562
REMARK  232  A    between atoms: _562  and  _563
REMARK  233  A    between atoms: _562  and  _565
REMARK  234  A    between atoms: _565  and  _566
REMARK                            x       y       z     vdW  Elec       q    Type
REMARK                         _______ _______ _______ _____ _____    ______ ____
ROOT
ATOM      1  O   HOH     1      37.721 -54.099  -9.581  0.00  0.00    +0.000 OA
ENDROOT
TORSDOF 0
REMARK  Name = ../refined-set-2016/4fut/4fut_pocket.pdb
REMARK  234 active torsions:
REMARK  status: ('A' for Active; 'I' for Inactive)
REMARK    1  A    between atoms: _1  and  _3
REMARK    2  A    between atoms: _3  and  _4
REMARK    3  A    between atoms: _3  and  _6
REMARK    4  A    between atoms: _6  and  _7
REMARK    5  A    between atoms: _12  and  _13
REMARK    6  A    between atoms: _15  and  _17
REMARK    7  A    between atoms: _17  and  _18
REMARK    8  A    between atoms: _17  and  _20
REMARK    9  A    between atoms: _20  and  _21
REMARK   10  A    between atoms: _24  and  _26
REMARK   11  A    between atoms: _26  and  _27
REMARK   12  A    between atoms: _26  and  _29
REMARK   13  A    between atoms: _29  and  _30
REMARK   14  A    between atoms: _35  and  _36
REMARK   15  A    between atoms: _38  and  _40
REMARK   16  A    between atoms: _40  and  _41
REMARK   17  A    between atoms: _40  and  _43
REMARK   18  A    between atoms: _43  and  _44
REMARK   19  A    between atoms: _47  and  _49
REMARK   20  A    between atoms: _49  and  _50
REMARK   21  A    between atoms: _49  and  _52
REMARK   22  A    between atoms: _52  and  _53
REMARK   23  A    between atoms: _55  and  _57
REMARK   24  A    between atoms: _57  and  _58
REMARK   25  A    between atoms: _60  and  _62
REMARK   26  A    between atoms: _62  and  _63
REMARK   27  A    between atoms: _62  and  _65
REMARK   28  A    between atoms: _65  and  _66
REMARK   29  A    between atoms: _69  and  _71
REMARK   30  A    between atoms: _71  and  _72
REMARK   31  A    between atoms: _71  and  _74
REMARK   32  A    between atoms: _74  and  _75
REMARK   33  A    between atoms: _78  and  _80
REMARK   34  A    between atoms: _80  and  _81
REMARK   35  A    between atoms: _83  and  _85
REMARK   36  A    between atoms: _85  and  _86
REMARK   37  A    between atoms: _85  and  _88
REMARK   38  A    between atoms: _88  and  _89
REMARK   39  A    between atoms: _89  and  _90
REMARK   40  A    between atoms: _90  and  _91
REMARK   41  A    between atoms: _100  and  _102
REMARK   42  A    between atoms: _102  and  _103
REMARK   43  A    between atoms: _102  and  _105
REMARK   44  A    between atoms: _105  and  _106
REMARK   45  A    between atoms: _108  and  _110
REMARK   46  A    between atoms: _110  and  _111
REMARK   47  A    between atoms: _110  and  _119
REMARK   48  A    between atoms: _111  and  _112
REMARK   49  A    between atoms: _112  and  _113
REMARK   50  A    between atoms: _113  and  _114
REMARK   51  A    between atoms: _114  and  _115
REMARK   52  A    between atoms: _121  and  _123
REMARK   53  A    between atoms: _123  and  _124
REMARK   54  A    between atoms: _123  and  _126
REMARK   55  A    between atoms: _126  and  _127
REMARK   56  A    between atoms: _132  and  _134
REMARK   57  A    between atoms: _134  and  _135
REMARK   58  A    between atoms: _134  and  _137
REMARK   59  A    between atoms: _137  and  _138
REMARK   60  A    between atoms: _141  and  _143
REMARK   61  A    between atoms: _143  and  _144
REMARK   62  A    between atoms: _143  and  _146
REMARK   63  A    between atoms: _146  and  _147
REMARK   64  A    between atoms: _153  and  _154
REMARK   65  A    between atoms: _159  and  _161
REMARK   66  A    between atoms: _161  and  _162
REMARK   67  A    between atoms: _161  and  _164
REMARK   68  A    between atoms: _164  and  _165
REMARK   69  A    between atoms: _167  and  _169
REMARK   70  A    between atoms: _169  and  _170
REMARK   71  A    between atoms: _172  and  _174
REMARK   72  A    between atoms: _174  and  _175
REMARK   73  A    between atoms: _174  and  _177
REMARK   74  A    between atoms: _177  and  _178
REMARK   75  A    between atoms: _180  and  _182
REMARK   76  A    between atoms: _182  and  _183
REMARK   77  A    between atoms: _187  and  _188
REMARK   78  A    between atoms: _193  and  _195
REMARK   79  A    between atoms: _195  and  _196
REMARK   80  A    between atoms: _195  and  _198
REMARK   81  A    between atoms: _198  and  _199
REMARK   82  A    between atoms: _202  and  _204
REMARK   83  A    between atoms: _204  and  _205
REMARK   84  A    between atoms: _204  and  _207
REMARK   85  A    between atoms: _207  and  _208
REMARK   86  A    between atoms: _211  and  _213
REMARK   87  A    between atoms: _213  and  _214
REMARK   88  A    between atoms: _213  and  _216
REMARK   89  A    between atoms: _216  and  _217
REMARK   90  A    between atoms: _217  and  _218
REMARK   91  A    between atoms: _221  and  _223
REMARK   92  A    between atoms: _223  and  _224
REMARK   93  A    between atoms: _223  and  _226
REMARK   94  A    between atoms: _226  and  _227
REMARK   95  A    between atoms: _227  and  _228
REMARK   96  A    between atoms: _228  and  _229
REMARK   97  A    between atoms: _238  and  _240
REMARK   98  A    between atoms: _240  and  _241
REMARK   99  A    between atoms: _240  and  _243
REMARK  100  A    between atoms: _243  and  _244
REMARK  101  A    between atoms: _249  and  _250
REMARK  102  A    between atoms: _252  and  _254
REMARK  103  A    between atoms: _254  and  _255
REMARK  104  A    between atoms: _257  and  _259
REMARK  105  A    between atoms: _259  and  _260
REMARK  106  A    between atoms: _259  and  _262
REMARK  107  A    between atoms: _262  and  _263
REMARK  108  A    between atoms: _263  and  _264
REMARK  109  A    between atoms: _266  and  _268
REMARK  110  A    between atoms: _268  and  _269
REMARK  111  A    between atoms: _268  and  _271
REMARK  112  A    between atoms: _271  and  _272
REMARK  113  A    between atoms: _275  and  _277
REMARK  114  A    between atoms: _277  and  _278
REMARK  115  A    between atoms: _277  and  _280
REMARK  116  A    between atoms: _280  and  _281
REMARK  117  A    between atoms: _281  and  _282
REMARK  118  A    between atoms: _285  and  _287
REMARK  119  A    between atoms: _287  and  _288
REMARK  120  A    between atoms: _287  and  _290
REMARK  121  A    between atoms: _290  and  _291
REMARK  122  A    between atoms: _294  and  _296
REMARK  123  A    between atoms: _296  and  _297
REMARK  124  A    between atoms: _296  and  _299
REMARK  125  A    between atoms: _299  and  _300
REMARK  126  A    between atoms: _305  and  _307
REMARK  127  A    between atoms: _307  and  _308
REMARK  128  A    between atoms: _307  and  _310
REMARK  129  A    between atoms: _310  and  _311
REMARK  130  A    between atoms: _311  and  _312
REMARK  131  A    between atoms: _314  and  _316
REMARK  132  A    between atoms: _316  and  _317
REMARK  133  A    between atoms: _316  and  _319
REMARK  134  A    between atoms: _319  and  _320
REMARK  135  A    between atoms: _325  and  _327
REMARK  136  A    between atoms: _327  and  _328
REMARK  137  A    between atoms: _327  and  _330
REMARK  138  A    between atoms: _330  and  _331
REMARK  139  A    between atoms: _334  and  _336
REMARK  140  A    between atoms: _336  and  _337
REMARK  141  A    between atoms: _336  and  _339
REMARK  142  A    between atoms: _339  and  _340
REMARK  143  A    between atoms: _345  and  _347
REMARK  144  A    between atoms: _347  and  _348
REMARK  145  A    between atoms: _350  and  _352
REMARK  146  A    between atoms: _352  and  _353
REMARK  147  A    between atoms: _356  and  _358
REMARK  148  A    between atoms: _358  and  _359
REMARK  149  A    between atoms: _358  and  _361
REMARK  150  A    between atoms: _364  and  _366
REMARK  151  A    between atoms: _366  and  _367
REMARK  152  A    between atoms: _369  and  _371
REMARK  153  A    between atoms: _371  and  _372
REMARK  154  A    between atoms: _371  and  _374
REMARK  155  A    between atoms: _374  and  _375
REMARK  156  A    between atoms: _380  and  _381
REMARK  157  A    between atoms: _383  and  _385
REMARK  158  A    between atoms: _385  and  _386
REMARK  159  A    between atoms: _385  and  _388
REMARK  160  A    between atoms: _388  and  _389
REMARK  161  A    between atoms: _395  and  _397
REMARK  162  A    between atoms: _397  and  _398
REMARK  163  A    between atoms: _397  and  _400
REMARK  164  A    between atoms: _400  and  _401
REMARK  165  A    between atoms: _404  and  _406
REMARK  166  A    between atoms: _406  and  _407
REMARK  167  A    between atoms: _406  and  _409
REMARK  168  A    between atoms: _409  and  _410
REMARK  169  A    between atoms: _413  and  _415
REMARK  170  A    between atoms: _415  and  _416
REMARK  171  A    between atoms: _418  and  _420
REMARK  172  A    between atoms: _420  and  _421
REMARK  173  A    between atoms: _420  and  _423
REMARK  174  A    between atoms: _423  and  _424
REMARK  175  A    between atoms: _427  and  _429
REMARK  176  A    between atoms: _429  and  _430
REMARK  177  A    between atoms: _429  and  _432
REMARK  178  A    between atoms: _432  and  _433
REMARK  179  A    between atoms: _436  and  _438
REMARK  180  A    between atoms: _438  and  _439
REMARK  181  A    between atoms: _438  and  _441
REMARK  182  A    between atoms: _441  and  _442
REMARK  183  A    between atoms: _447  and  _449
REMARK  184  A    between atoms: _449  and  _450
REMARK  185  A    between atoms: _449  and  _452
REMARK  186  A    between atoms: _452  and  _453
REMARK  187  A    between atoms: _456  and  _458
REMARK  188  A    between atoms: _458  and  _459
REMARK  189  A    between atoms: _458  and  _461
REMARK  190  A    between atoms: _461  and  _462
REMARK  191  A    between atoms: _465  and  _467
REMARK  192  A    between atoms: _467  and  _468
REMARK  193  A    between atoms: _470  and  _472
REMARK  194  A    between atoms: _472  and  _473
REMARK  195  A    between atoms: _472  and  _475
REMARK  196  A    between atoms: _475  and  _476
REMARK  197  A    between atoms: _476  and  _477
REMARK  198  A    between atoms: _477  and  _478
REMARK  199  A    between atoms: _487  and  _489
REMARK  200  A    between atoms: _489  and  _490
REMARK  201  A    between atoms: _492  and  _494
REMARK  202  A    between atoms: _494  and  _495
REMARK  203  A    between atoms: _494  and  _497
REMARK  204  A    between atoms: _497  and  _498
REMARK  205  A    between atoms: _501  and  _503
REMARK  206  A    between atoms: _503  and  _504
REMARK  207  A    between atoms: _503  and  _512
REMARK  208  A    between atoms: _504  and  _505
REMARK  209  A    between atoms: _505  and  _506
REMARK  210  A    between atoms: _506  and  _507
REMARK  211  A    between atoms: _507  and  _508
REMARK  212  A    between atoms: _514  and  _516
REMARK  213  A    between atoms: _516  and  _517
REMARK  214  A    between atoms: _516  and  _519
REMARK  215  A    between atoms: _519  and  _520
REMARK  216  A    between atoms: _525  and  _527
REMARK  217  A    between atoms: _527  and  _528
REMARK  218  A    between atoms: _527  and  _530
REMARK  219  A    between atoms: _530  and  _531
REMARK  220  A    between atoms: _531  and  _532
REMARK  221  A    between atoms: _534  and  _536
REMARK  222  A    between atoms: _536  and  _537
REMARK  223  A    between atoms: _540  and  _542
REMARK  224  A    between atoms: _542  and  _543
REMARK  225  A    between atoms: _542  and  _545
REMARK  226  A    between atoms: _548  and  _550
REMARK  227  A    between atoms: _550  and  _551
REMARK  228  A    between atoms: _550  and  _553
REMARK  229  A    between atoms: _553  and  _554
REMARK  230  A    between atoms: _554  and  _555
REMARK  231  A    between atoms: _560  and  _562
REMARK  232  A    between atoms: _562  and  _563
REMARK  233  A    between atoms: _562  and  _565
REMARK  234  A    between atoms: _565  and  _566
REMARK                            x       y       z     vdW  Elec       q    Type
REMARK                         _______ _______ _______ _____ _____    ______ ____
ROOT
ATOM      1  O   HOH     1      38.010 -48.725  -7.190  0.00  0.00    +0.000 OA
ENDROOT
TORSDOF 0
REMARK  Name = ../refined-set-2016/4fut/4fut_pocket.pdb
REMARK  234 active torsions:
REMARK  status: ('A' for Active; 'I' for Inactive)
REMARK    1  A    between atoms: _1  and  _3
REMARK    2  A    between atoms: _3  and  _4
REMARK    3  A    between atoms: _3  and  _6
REMARK    4  A    between atoms: _6  and  _7
REMARK    5  A    between atoms: _12  and  _13
REMARK    6  A    between atoms: _15  and  _17
REMARK    7  A    between atoms: _17  and  _18
REMARK    8  A    between atoms: _17  and  _20
REMARK    9  A    between atoms: _20  and  _21
REMARK   10  A    between atoms: _24  and  _26
REMARK   11  A    between atoms: _26  and  _27
REMARK   12  A    between atoms: _26  and  _29
REMARK   13  A    between atoms: _29  and  _30
REMARK   14  A    between atoms: _35  and  _36
REMARK   15  A    between atoms: _38  and  _40
REMARK   16  A    between atoms: _40  and  _41
REMARK   17  A    between atoms: _40  and  _43
REMARK   18  A    between atoms: _43  and  _44
REMARK   19  A    between atoms: _47  and  _49
REMARK   20  A    between atoms: _49  and  _50
REMARK   21  A    between atoms: _49  and  _52
REMARK   22  A    between atoms: _52  and  _53
REMARK   23  A    between atoms: _55  and  _57
REMARK   24  A    between atoms: _57  and  _58
REMARK   25  A    between atoms: _60  and  _62
REMARK   26  A    between atoms: _62  and  _63
REMARK   27  A    between atoms: _62  and  _65
REMARK   28  A    between atoms: _65  and  _66
REMARK   29  A    between atoms: _69  and  _71
REMARK   30  A    between atoms: _71  and  _72
REMARK   31  A    between atoms: _71  and  _74
REMARK   32  A    between atoms: _74  and  _75
REMARK   33  A    between atoms: _78  and  _80
REMARK   34  A    between atoms: _80  and  _81
REMARK   35  A    between atoms: _83  and  _85
REMARK   36  A    between atoms: _85  and  _86
REMARK   37  A    between atoms: _85  and  _88
REMARK   38  A    between atoms: _88  and  _89
REMARK   39  A    between atoms: _89  and  _90
REMARK   40  A    between atoms: _90  and  _91
REMARK   41  A    between atoms: _100  and  _102
REMARK   42  A    between atoms: _102  and  _103
REMARK   43  A    between atoms: _102  and  _105
REMARK   44  A    between atoms: _105  and  _106
REMARK   45  A    between atoms: _108  and  _110
REMARK   46  A    between atoms: _110  and  _111
REMARK   47  A    between atoms: _110  and  _119
REMARK   48  A    between atoms: _111  and  _112
REMARK   49  A    between atoms: _112  and  _113
REMARK   50  A    between atoms: _113  and  _114
REMARK   51  A    between atoms: _114  and  _115
REMARK   52  A    between atoms: _121  and  _123
REMARK   53  A    between atoms: _123  and  _124
REMARK   54  A    between atoms: _123  and  _126
REMARK   55  A    between atoms: _126  and  _127
REMARK   56  A    between atoms: _132  and  _134
REMARK   57  A    between atoms: _134  and  _135
REMARK   58  A    between atoms: _134  and  _137
REMARK   59  A    between atoms: _137  and  _138
REMARK   60  A    between atoms: _141  and  _143
REMARK   61  A    between atoms: _143  and  _144
REMARK   62  A    between atoms: _143  and  _146
REMARK   63  A    between atoms: _146  and  _147
REMARK   64  A    between atoms: _153  and  _154
REMARK   65  A    between atoms: _159  and  _161
REMARK   66  A    between atoms: _161  and  _162
REMARK   67  A    between atoms: _161  and  _164
REMARK   68  A    between atoms: _164  and  _165
REMARK   69  A    between atoms: _167  and  _169
REMARK   70  A    between atoms: _169  and  _170
REMARK   71  A    between atoms: _172  and  _174
REMARK   72  A    between atoms: _174  and  _175
REMARK   73  A    between atoms: _174  and  _177
REMARK   74  A    between atoms: _177  and  _178
REMARK   75  A    between atoms: _180  and  _182
REMARK   76  A    between atoms: _182  and  _183
REMARK   77  A    between atoms: _187  and  _188
REMARK   78  A    between atoms: _193  and  _195
REMARK   79  A    between atoms: _195  and  _196
REMARK   80  A    between atoms: _195  and  _198
REMARK   81  A    between atoms: _198  and  _199
REMARK   82  A    between atoms: _202  and  _204
REMARK   83  A    between atoms: _204  and  _205
REMARK   84  A    between atoms: _204  and  _207
REMARK   85  A    between atoms: _207  and  _208
REMARK   86  A    between atoms: _211  and  _213
REMARK   87  A    between atoms: _213  and  _214
REMARK   88  A    between atoms: _213  and  _216
REMARK   89  A    between atoms: _216  and  _217
REMARK   90  A    between atoms: _217  and  _218
REMARK   91  A    between atoms: _221  and  _223
REMARK   92  A    between atoms: _223  and  _224
REMARK   93  A    between atoms: _223  and  _226
REMARK   94  A    between atoms: _226  and  _227
REMARK   95  A    between atoms: _227  and  _228
REMARK   96  A    between atoms: _228  and  _229
REMARK   97  A    between atoms: _238  and  _240
REMARK   98  A    between atoms: _240  and  _241
REMARK   99  A    between atoms: _240  and  _243
REMARK  100  A    between atoms: _243  and  _244
REMARK  101  A    between atoms: _249  and  _250
REMARK  102  A    between atoms: _252  and  _254
REMARK  103  A    between atoms: _254  and  _255
REMARK  104  A    between atoms: _257  and  _259
REMARK  105  A    between atoms: _259  and  _260
REMARK  106  A    between atoms: _259  and  _262
REMARK  107  A    between atoms: _262  and  _263
REMARK  108  A    between atoms: _263  and  _264
REMARK  109  A    between atoms: _266  and  _268
REMARK  110  A    between atoms: _268  and  _269
REMARK  111  A    between atoms: _268  and  _271
REMARK  112  A    between atoms: _271  and  _272
REMARK  113  A    between atoms: _275  and  _277
REMARK  114  A    between atoms: _277  and  _278
REMARK  115  A    between atoms: _277  and  _280
REMARK  116  A    between atoms: _280  and  _281
REMARK  117  A    between atoms: _281  and  _282
REMARK  118  A    between atoms: _285  and  _287
REMARK  119  A    between atoms: _287  and  _288
REMARK  120  A    between atoms: _287  and  _290
REMARK  121  A    between atoms: _290  and  _291
REMARK  122  A    between atoms: _294  and  _296
REMARK  123  A    between atoms: _296  and  _297
REMARK  124  A    between atoms: _296  and  _299
REMARK  125  A    between atoms: _299  and  _300
REMARK  126  A    between atoms: _305  and  _307
REMARK  127  A    between atoms: _307  and  _308
REMARK  128  A    between atoms: _307  and  _310
REMARK  129  A    between atoms: _310  and  _311
REMARK  130  A    between atoms: _311  and  _312
REMARK  131  A    between atoms: _314  and  _316
REMARK  132  A    between atoms: _316  and  _317
REMARK  133  A    between atoms: _316  and  _319
REMARK  134  A    between atoms: _319  and  _320
REMARK  135  A    between atoms: _325  and  _327
REMARK  136  A    between atoms: _327  and  _328
REMARK  137  A    between atoms: _327  and  _330
REMARK  138  A    between atoms: _330  and  _331
REMARK  139  A    between atoms: _334  and  _336
REMARK  140  A    between atoms: _336  and  _337
REMARK  141  A    between atoms: _336  and  _339
REMARK  142  A    between atoms: _339  and  _340
REMARK  143  A    between atoms: _345  and  _347
REMARK  144  A    between atoms: _347  and  _348
REMARK  145  A    between atoms: _350  and  _352
REMARK  146  A    between atoms: _352  and  _353
REMARK  147  A    between atoms: _356  and  _358
REMARK  148  A    between atoms: _358  and  _359
REMARK  149  A    between atoms: _358  and  _361
REMARK  150  A    between atoms: _364  and  _366
REMARK  151  A    between atoms: _366  and  _367
REMARK  152  A    between atoms: _369  and  _371
REMARK  153  A    between atoms: _371  and  _372
REMARK  154  A    between atoms: _371  and  _374
REMARK  155  A    between atoms: _374  and  _375
REMARK  156  A    between atoms: _380  and  _381
REMARK  157  A    between atoms: _383  and  _385
REMARK  158  A    between atoms: _385  and  _386
REMARK  159  A    between atoms: _385  and  _388
REMARK  160  A    between atoms: _388  and  _389
REMARK  161  A    between atoms: _395  and  _397
REMARK  162  A    between atoms: _397  and  _398
REMARK  163  A    between atoms: _397  and  _400
REMARK  164  A    between atoms: _400  and  _401
REMARK  165  A    between atoms: _404  and  _406
REMARK  166  A    between atoms: _406  and  _407
REMARK  167  A    between atoms: _406  and  _409
REMARK  168  A    between atoms: _409  and  _410
REMARK  169  A    between atoms: _413  and  _415
REMARK  170  A    between atoms: _415  and  _416
REMARK  171  A    between atoms: _418  and  _420
REMARK  172  A    between atoms: _420  and  _421
REMARK  173  A    between atoms: _420  and  _423
REMARK  174  A    between atoms: _423  and  _424
REMARK  175  A    between atoms: _427  and  _429
REMARK  176  A    between atoms: _429  and  _430
REMARK  177  A    between atoms: _429  and  _432
REMARK  178  A    between atoms: _432  and  _433
REMARK  179  A    between atoms: _436  and  _438
REMARK  180  A    between atoms: _438  and  _439
REMARK  181  A    between atoms: _438  and  _441
REMARK  182  A    between atoms: _441  and  _442
REMARK  183  A    between atoms: _447  and  _449
REMARK  184  A    between atoms: _449  and  _450
REMARK  185  A    between atoms: _449  and  _452
REMARK  186  A    between atoms: _452  and  _453
REMARK  187  A    between atoms: _456  and  _458
REMARK  188  A    between atoms: _458  and  _459
REMARK  189  A    between atoms: _458  and  _461
REMARK  190  A    between atoms: _461  and  _462
REMARK  191  A    between atoms: _465  and  _467
REMARK  192  A    between atoms: _467  and  _468
REMARK  193  A    between atoms: _470  and  _472
REMARK  194  A    between atoms: _472  and  _473
REMARK  195  A    between atoms: _472  and  _475
REMARK  196  A    between atoms: _475  and  _476
REMARK  197  A    between atoms: _476  and  _477
REMARK  198  A    between atoms: _477  and  _478
REMARK  199  A    between atoms: _487  and  _489
REMARK  200  A    between atoms: _489  and  _490
REMARK  201  A    between atoms: _492  and  _494
REMARK  202  A    between atoms: _494  and  _495
REMARK  203  A    between atoms: _494  and  _497
REMARK  204  A    between atoms: _497  and  _498
REMARK  205  A    between atoms: _501  and  _503
REMARK  206  A    between atoms: _503  and  _504
REMARK  207  A    between atoms: _503  and  _512
REMARK  208  A    between atoms: _504  and  _505
REMARK  209  A    between atoms: _505  and  _506
REMARK  210  A    between atoms: _506  and  _507
REMARK  211  A    between atoms: _507  and  _508
REMARK  212  A    between atoms: _514  and  _516
REMARK  213  A    between atoms: _516  and  _517
REMARK  214  A    between atoms: _516  and  _519
REMARK  215  A    between atoms: _519  and  _520
REMARK  216  A    between atoms: _525  and  _527
REMARK  217  A    between atoms: _527  and  _528
REMARK  218  A    between atoms: _527  and  _530
REMARK  219  A    between atoms: _530  and  _531
REMARK  220  A    between atoms: _531  and  _532
REMARK  221  A    between atoms: _534  and  _536
REMARK  222  A    between atoms: _536  and  _537
REMARK  223  A    between atoms: _540  and  _542
REMARK  224  A    between atoms: _542  and  _543
REMARK  225  A    between atoms: _542  and  _545
REMARK  226  A    between atoms: _548  and  _550
REMARK  227  A    between atoms: _550  and  _551
REMARK  228  A    between atoms: _550  and  _553
REMARK  229  A    between atoms: _553  and  _554
REMARK  230  A    between atoms: _554  and  _555
REMARK  231  A    between atoms: _560  and  _562
REMARK  232  A    between atoms: _562  and  _563
REMARK  233  A    between atoms: _562  and  _565
REMARK  234  A    between atoms: _565  and  _566
REMARK                            x       y       z     vdW  Elec       q    Type
REMARK                         _______ _______ _______ _____ _____    ______ ____
ROOT
ATOM      1  O   HOH     1      24.058 -57.784  -5.883  0.00  0.00    +0.000 OA
ENDROOT
TORSDOF 0
REMARK  Name = ../refined-set-2016/4fut/4fut_pocket.pdb
REMARK  234 active torsions:
REMARK  status: ('A' for Active; 'I' for Inactive)
REMARK    1  A    between atoms: _1  and  _3
REMARK    2  A    between atoms: _3  and  _4
REMARK    3  A    between atoms: _3  and  _6
REMARK    4  A    between atoms: _6  and  _7
REMARK    5  A    between atoms: _12  and  _13
REMARK    6  A    between atoms: _15  and  _17
REMARK    7  A    between atoms: _17  and  _18
REMARK    8  A    between atoms: _17  and  _20
REMARK    9  A    between atoms: _20  and  _21
REMARK   10  A    between atoms: _24  and  _26
REMARK   11  A    between atoms: _26  and  _27
REMARK   12  A    between atoms: _26  and  _29
REMARK   13  A    between atoms: _29  and  _30
REMARK   14  A    between atoms: _35  and  _36
REMARK   15  A    between atoms: _38  and  _40
REMARK   16  A    between atoms: _40  and  _41
REMARK   17  A    between atoms: _40  and  _43
REMARK   18  A    between atoms: _43  and  _44
REMARK   19  A    between atoms: _47  and  _49
REMARK   20  A    between atoms: _49  and  _50
REMARK   21  A    between atoms: _49  and  _52
REMARK   22  A    between atoms: _52  and  _53
REMARK   23  A    between atoms: _55  and  _57
REMARK   24  A    between atoms: _57  and  _58
REMARK   25  A    between atoms: _60  and  _62
REMARK   26  A    between atoms: _62  and  _63
REMARK   27  A    between atoms: _62  and  _65
REMARK   28  A    between atoms: _65  and  _66
REMARK   29  A    between atoms: _69  and  _71
REMARK   30  A    between atoms: _71  and  _72
REMARK   31  A    between atoms: _71  and  _74
REMARK   32  A    between atoms: _74  and  _75
REMARK   33  A    between atoms: _78  and  _80
REMARK   34  A    between atoms: _80  and  _81
REMARK   35  A    between atoms: _83  and  _85
REMARK   36  A    between atoms: _85  and  _86
REMARK   37  A    between atoms: _85  and  _88
REMARK   38  A    between atoms: _88  and  _89
REMARK   39  A    between atoms: _89  and  _90
REMARK   40  A    between atoms: _90  and  _91
REMARK   41  A    between atoms: _100  and  _102
REMARK   42  A    between atoms: _102  and  _103
REMARK   43  A    between atoms: _102  and  _105
REMARK   44  A    between atoms: _105  and  _106
REMARK   45  A    between atoms: _108  and  _110
REMARK   46  A    between atoms: _110  and  _111
REMARK   47  A    between atoms: _110  and  _119
REMARK   48  A    between atoms: _111  and  _112
REMARK   49  A    between atoms: _112  and  _113
REMARK   50  A    between atoms: _113  and  _114
REMARK   51  A    between atoms: _114  and  _115
REMARK   52  A    between atoms: _121  and  _123
REMARK   53  A    between atoms: _123  and  _124
REMARK   54  A    between atoms: _123  and  _126
REMARK   55  A    between atoms: _126  and  _127
REMARK   56  A    between atoms: _132  and  _134
REMARK   57  A    between atoms: _134  and  _135
REMARK   58  A    between atoms: _134  and  _137
REMARK   59  A    between atoms: _137  and  _138
REMARK   60  A    between atoms: _141  and  _143
REMARK   61  A    between atoms: _143  and  _144
REMARK   62  A    between atoms: _143  and  _146
REMARK   63  A    between atoms: _146  and  _147
REMARK   64  A    between atoms: _153  and  _154
REMARK   65  A    between atoms: _159  and  _161
REMARK   66  A    between atoms: _161  and  _162
REMARK   67  A    between atoms: _161  and  _164
REMARK   68  A    between atoms: _164  and  _165
REMARK   69  A    between atoms: _167  and  _169
REMARK   70  A    between atoms: _169  and  _170
REMARK   71  A    between atoms: _172  and  _174
REMARK   72  A    between atoms: _174  and  _175
REMARK   73  A    between atoms: _174  and  _177
REMARK   74  A    between atoms: _177  and  _178
REMARK   75  A    between atoms: _180  and  _182
REMARK   76  A    between atoms: _182  and  _183
REMARK   77  A    between atoms: _187  and  _188
REMARK   78  A    between atoms: _193  and  _195
REMARK   79  A    between atoms: _195  and  _196
REMARK   80  A    between atoms: _195  and  _198
REMARK   81  A    between atoms: _198  and  _199
REMARK   82  A    between atoms: _202  and  _204
REMARK   83  A    between atoms: _204  and  _205
REMARK   84  A    between atoms: _204  and  _207
REMARK   85  A    between atoms: _207  and  _208
REMARK   86  A    between atoms: _211  and  _213
REMARK   87  A    between atoms: _213  and  _214
REMARK   88  A    between atoms: _213  and  _216
REMARK   89  A    between atoms: _216  and  _217
REMARK   90  A    between atoms: _217  and  _218
REMARK   91  A    between atoms: _221  and  _223
REMARK   92  A    between atoms: _223  and  _224
REMARK   93  A    between atoms: _223  and  _226
REMARK   94  A    between atoms: _226  and  _227
REMARK   95  A    between atoms: _227  and  _228
REMARK   96  A    between atoms: _228  and  _229
REMARK   97  A    between atoms: _238  and  _240
REMARK   98  A    between atoms: _240  and  _241
REMARK   99  A    between atoms: _240  and  _243
REMARK  100  A    between atoms: _243  and  _244
REMARK  101  A    between atoms: _249  and  _250
REMARK  102  A    between atoms: _252  and  _254
REMARK  103  A    between atoms: _254  and  _255
REMARK  104  A    between atoms: _257  and  _259
REMARK  105  A    between atoms: _259  and  _260
REMARK  106  A    between atoms: _259  and  _262
REMARK  107  A    between atoms: _262  and  _263
REMARK  108  A    between atoms: _263  and  _264
REMARK  109  A    between atoms: _266  and  _268
REMARK  110  A    between atoms: _268  and  _269
REMARK  111  A    between atoms: _268  and  _271
REMARK  112  A    between atoms: _271  and  _272
REMARK  113  A    between atoms: _275  and  _277
REMARK  114  A    between atoms: _277  and  _278
REMARK  115  A    between atoms: _277  and  _280
REMARK  116  A    between atoms: _280  and  _281
REMARK  117  A    between atoms: _281  and  _282
REMARK  118  A    between atoms: _285  and  _287
REMARK  119  A    between atoms: _287  and  _288
REMARK  120  A    between atoms: _287  and  _290
REMARK  121  A    between atoms: _290  and  _291
REMARK  122  A    between atoms: _294  and  _296
REMARK  123  A    between atoms: _296  and  _297
REMARK  124  A    between atoms: _296  and  _299
REMARK  125  A    between atoms: _299  and  _300
REMARK  126  A    between atoms: _305  and  _307
REMARK  127  A    between atoms: _307  and  _308
REMARK  128  A    between atoms: _307  and  _310
REMARK  129  A    between atoms: _310  and  _311
REMARK  130  A    between atoms: _311  and  _312
REMARK  131  A    between atoms: _314  and  _316
REMARK  132  A    between atoms: _316  and  _317
REMARK  133  A    between atoms: _316  and  _319
REMARK  134  A    between atoms: _319  and  _320
REMARK  135  A    between atoms: _325  and  _327
REMARK  136  A    between atoms: _327  and  _328
REMARK  137  A    between atoms: _327  and  _330
REMARK  138  A    between atoms: _330  and  _331
REMARK  139  A    between atoms: _334  and  _336
REMARK  140  A    between atoms: _336  and  _337
REMARK  141  A    between atoms: _336  and  _339
REMARK  142  A    between atoms: _339  and  _340
REMARK  143  A    between atoms: _345  and  _347
REMARK  144  A    between atoms: _347  and  _348
REMARK  145  A    between atoms: _350  and  _352
REMARK  146  A    between atoms: _352  and  _353
REMARK  147  A    between atoms: _356  and  _358
REMARK  148  A    between atoms: _358  and  _359
REMARK  149  A    between atoms: _358  and  _361
REMARK  150  A    between atoms: _364  and  _366
REMARK  151  A    between atoms: _366  and  _367
REMARK  152  A    between atoms: _369  and  _371
REMARK  153  A    between atoms: _371  and  _372
REMARK  154  A    between atoms: _371  and  _374
REMARK  155  A    between atoms: _374  and  _375
REMARK  156  A    between atoms: _380  and  _381
REMARK  157  A    between atoms: _383  and  _385
REMARK  158  A    between atoms: _385  and  _386
REMARK  159  A    between atoms: _385  and  _388
REMARK  160  A    between atoms: _388  and  _389
REMARK  161  A    between atoms: _395  and  _397
REMARK  162  A    between atoms: _397  and  _398
REMARK  163  A    between atoms: _397  and  _400
REMARK  164  A    between atoms: _400  and  _401
REMARK  165  A    between atoms: _404  and  _406
REMARK  166  A    between atoms: _406  and  _407
REMARK  167  A    between atoms: _406  and  _409
REMARK  168  A    between atoms: _409  and  _410
REMARK  169  A    between atoms: _413  and  _415
REMARK  170  A    between atoms: _415  and  _416
REMARK  171  A    between atoms: _418  and  _420
REMARK  172  A    between atoms: _420  and  _421
REMARK  173  A    between atoms: _420  and  _423
REMARK  174  A    between atoms: _423  and  _424
REMARK  175  A    between atoms: _427  and  _429
REMARK  176  A    between atoms: _429  and  _430
REMARK  177  A    between atoms: _429  and  _432
REMARK  178  A    between atoms: _432  and  _433
REMARK  179  A    between atoms: _436  and  _438
REMARK  180  A    between atoms: _438  and  _439
REMARK  181  A    between atoms: _438  and  _441
REMARK  182  A    between atoms: _441  and  _442
REMARK  183  A    between atoms: _447  and  _449
REMARK  184  A    between atoms: _449  and  _450
REMARK  185  A    between atoms: _449  and  _452
REMARK  186  A    between atoms: _452  and  _453
REMARK  187  A    between atoms: _456  and  _458
REMARK  188  A    between atoms: _458  and  _459
REMARK  189  A    between atoms: _458  and  _461
REMARK  190  A    between atoms: _461  and  _462
REMARK  191  A    between atoms: _465  and  _467
REMARK  192  A    between atoms: _467  and  _468
REMARK  193  A    between atoms: _470  and  _472
REMARK  194  A    between atoms: _472  and  _473
REMARK  195  A    between atoms: _472  and  _475
REMARK  196  A    between atoms: _475  and  _476
REMARK  197  A    between atoms: _476  and  _477
REMARK  198  A    between atoms: _477  and  _478
REMARK  199  A    between atoms: _487  and  _489
REMARK  200  A    between atoms: _489  and  _490
REMARK  201  A    between atoms: _492  and  _494
REMARK  202  A    between atoms: _494  and  _495
REMARK  203  A    between atoms: _494  and  _497
REMARK  204  A    between atoms: _497  and  _498
REMARK  205  A    between atoms: _501  and  _503
REMARK  206  A    between atoms: _503  and  _504
REMARK  207  A    between atoms: _503  and  _512
REMARK  208  A    between atoms: _504  and  _505
REMARK  209  A    between atoms: _505  and  _506
REMARK  210  A    between atoms: _506  and  _507
REMARK  211  A    between atoms: _507  and  _508
REMARK  212  A    between atoms: _514  and  _516
REMARK  213  A    between atoms: _516  and  _517
REMARK  214  A    between atoms: _516  and  _519
REMARK  215  A    between atoms: _519  and  _520
REMARK  216  A    between atoms: _525  and  _527
REMARK  217  A    between atoms: _527  and  _528
REMARK  218  A    between atoms: _527  and  _530
REMARK  219  A    between atoms: _530  and  _531
REMARK  220  A    between atoms: _531  and  _532
REMARK  221  A    between atoms: _534  and  _536
REMARK  222  A    between atoms: _536  and  _537
REMARK  223  A    between atoms: _540  and  _542
REMARK  224  A    between atoms: _542  and  _543
REMARK  225  A    between atoms: _542  and  _545
REMARK  226  A    between atoms: _548  and  _550
REMARK  227  A    between atoms: _550  and  _551
REMARK  228  A    between atoms: _550  and  _553
REMARK  229  A    between atoms: _553  and  _554
REMARK  230  A    between atoms: _554  and  _555
REMARK  231  A    between atoms: _560  and  _562
REMARK  232  A    between atoms: _562  and  _563
REMARK  233  A    between atoms: _562  and  _565
REMARK  234  A    between atoms: _565  and  _566
REMARK                            x       y       z     vdW  Elec       q    Type
REMARK                         _______ _______ _______ _____ _____    ______ ____
ROOT
ATOM      1  O   HOH     1      40.340 -51.599 -10.992  0.00  0.00    +0.000 OA
ENDROOT
TORSDOF 0
REMARK  Name = ../refined-set-2016/4fut/4fut_pocket.pdb
REMARK  234 active torsions:
REMARK  status: ('A' for Active; 'I' for Inactive)
REMARK    1  A    between atoms: _1  and  _3
REMARK    2  A    between atoms: _3  and  _4
REMARK    3  A    between atoms: _3  and  _6
REMARK    4  A    between atoms: _6  and  _7
REMARK    5  A    between atoms: _12  and  _13
REMARK    6  A    between atoms: _15  and  _17
REMARK    7  A    between atoms: _17  and  _18
REMARK    8  A    between atoms: _17  and  _20
REMARK    9  A    between atoms: _20  and  _21
REMARK   10  A    between atoms: _24  and  _26
REMARK   11  A    between atoms: _26  and  _27
REMARK   12  A    between atoms: _26  and  _29
REMARK   13  A    between atoms: _29  and  _30
REMARK   14  A    between atoms: _35  and  _36
REMARK   15  A    between atoms: _38  and  _40
REMARK   16  A    between atoms: _40  and  _41
REMARK   17  A    between atoms: _40  and  _43
REMARK   18  A    between atoms: _43  and  _44
REMARK   19  A    between atoms: _47  and  _49
REMARK   20  A    between atoms: _49  and  _50
REMARK   21  A    between atoms: _49  and  _52
REMARK   22  A    between atoms: _52  and  _53
REMARK   23  A    between atoms: _55  and  _57
REMARK   24  A    between atoms: _57  and  _58
REMARK   25  A    between atoms: _60  and  _62
REMARK   26  A    between atoms: _62  and  _63
REMARK   27  A    between atoms: _62  and  _65
REMARK   28  A    between atoms: _65  and  _66
REMARK   29  A    between atoms: _69  and  _71
REMARK   30  A    between atoms: _71  and  _72
REMARK   31  A    between atoms: _71  and  _74
REMARK   32  A    between atoms: _74  and  _75
REMARK   33  A    between atoms: _78  and  _80
REMARK   34  A    between atoms: _80  and  _81
REMARK   35  A    between atoms: _83  and  _85
REMARK   36  A    between atoms: _85  and  _86
REMARK   37  A    between atoms: _85  and  _88
REMARK   38  A    between atoms: _88  and  _89
REMARK   39  A    between atoms: _89  and  _90
REMARK   40  A    between atoms: _90  and  _91
REMARK   41  A    between atoms: _100  and  _102
REMARK   42  A    between atoms: _102  and  _103
REMARK   43  A    between atoms: _102  and  _105
REMARK   44  A    between atoms: _105  and  _106
REMARK   45  A    between atoms: _108  and  _110
REMARK   46  A    between atoms: _110  and  _111
REMARK   47  A    between atoms: _110  and  _119
REMARK   48  A    between atoms: _111  and  _112
REMARK   49  A    between atoms: _112  and  _113
REMARK   50  A    between atoms: _113  and  _114
REMARK   51  A    between atoms: _114  and  _115
REMARK   52  A    between atoms: _121  and  _123
REMARK   53  A    between atoms: _123  and  _124
REMARK   54  A    between atoms: _123  and  _126
REMARK   55  A    between atoms: _126  and  _127
REMARK   56  A    between atoms: _132  and  _134
REMARK   57  A    between atoms: _134  and  _135
REMARK   58  A    between atoms: _134  and  _137
REMARK   59  A    between atoms: _137  and  _138
REMARK   60  A    between atoms: _141  and  _143
REMARK   61  A    between atoms: _143  and  _144
REMARK   62  A    between atoms: _143  and  _146
REMARK   63  A    between atoms: _146  and  _147
REMARK   64  A    between atoms: _153  and  _154
REMARK   65  A    between atoms: _159  and  _161
REMARK   66  A    between atoms: _161  and  _162
REMARK   67  A    between atoms: _161  and  _164
REMARK   68  A    between atoms: _164  and  _165
REMARK   69  A    between atoms: _167  and  _169
REMARK   70  A    between atoms: _169  and  _170
REMARK   71  A    between atoms: _172  and  _174
REMARK   72  A    between atoms: _174  and  _175
REMARK   73  A    between atoms: _174  and  _177
REMARK   74  A    between atoms: _177  and  _178
REMARK   75  A    between atoms: _180  and  _182
REMARK   76  A    between atoms: _182  and  _183
REMARK   77  A    between atoms: _187  and  _188
REMARK   78  A    between atoms: _193  and  _195
REMARK   79  A    between atoms: _195  and  _196
REMARK   80  A    between atoms: _195  and  _198
REMARK   81  A    between atoms: _198  and  _199
REMARK   82  A    between atoms: _202  and  _204
REMARK   83  A    between atoms: _204  and  _205
REMARK   84  A    between atoms: _204  and  _207
REMARK   85  A    between atoms: _207  and  _208
REMARK   86  A    between atoms: _211  and  _213
REMARK   87  A    between atoms: _213  and  _214
REMARK   88  A    between atoms: _213  and  _216
REMARK   89  A    between atoms: _216  and  _217
REMARK   90  A    between atoms: _217  and  _218
REMARK   91  A    between atoms: _221  and  _223
REMARK   92  A    between atoms: _223  and  _224
REMARK   93  A    between atoms: _223  and  _226
REMARK   94  A    between atoms: _226  and  _227
REMARK   95  A    between atoms: _227  and  _228
REMARK   96  A    between atoms: _228  and  _229
REMARK   97  A    between atoms: _238  and  _240
REMARK   98  A    between atoms: _240  and  _241
REMARK   99  A    between atoms: _240  and  _243
REMARK  100  A    between atoms: _243  and  _244
REMARK  101  A    between atoms: _249  and  _250
REMARK  102  A    between atoms: _252  and  _254
REMARK  103  A    between atoms: _254  and  _255
REMARK  104  A    between atoms: _257  and  _259
REMARK  105  A    between atoms: _259  and  _260
REMARK  106  A    between atoms: _259  and  _262
REMARK  107  A    between atoms: _262  and  _263
REMARK  108  A    between atoms: _263  and  _264
REMARK  109  A    between atoms: _266  and  _268
REMARK  110  A    between atoms: _268  and  _269
REMARK  111  A    between atoms: _268  and  _271
REMARK  112  A    between atoms: _271  and  _272
REMARK  113  A    between atoms: _275  and  _277
REMARK  114  A    between atoms: _277  and  _278
REMARK  115  A    between atoms: _277  and  _280
REMARK  116  A    between atoms: _280  and  _281
REMARK  117  A    between atoms: _281  and  _282
REMARK  118  A    between atoms: _285  and  _287
REMARK  119  A    between atoms: _287  and  _288
REMARK  120  A    between atoms: _287  and  _290
REMARK  121  A    between atoms: _290  and  _291
REMARK  122  A    between atoms: _294  and  _296
REMARK  123  A    between atoms: _296  and  _297
REMARK  124  A    between atoms: _296  and  _299
REMARK  125  A    between atoms: _299  and  _300
REMARK  126  A    between atoms: _305  and  _307
REMARK  127  A    between atoms: _307  and  _308
REMARK  128  A    between atoms: _307  and  _310
REMARK  129  A    between atoms: _310  and  _311
REMARK  130  A    between atoms: _311  and  _312
REMARK  131  A    between atoms: _314  and  _316
REMARK  132  A    between atoms: _316  and  _317
REMARK  133  A    between atoms: _316  and  _319
REMARK  134  A    between atoms: _319  and  _320
REMARK  135  A    between atoms: _325  and  _327
REMARK  136  A    between atoms: _327  and  _328
REMARK  137  A    between atoms: _327  and  _330
REMARK  138  A    between atoms: _330  and  _331
REMARK  139  A    between atoms: _334  and  _336
REMARK  140  A    between atoms: _336  and  _337
REMARK  141  A    between atoms: _336  and  _339
REMARK  142  A    between atoms: _339  and  _340
REMARK  143  A    between atoms: _345  and  _347
REMARK  144  A    between atoms: _347  and  _348
REMARK  145  A    between atoms: _350  and  _352
REMARK  146  A    between atoms: _352  and  _353
REMARK  147  A    between atoms: _356  and  _358
REMARK  148  A    between atoms: _358  and  _359
REMARK  149  A    between atoms: _358  and  _361
REMARK  150  A    between atoms: _364  and  _366
REMARK  151  A    between atoms: _366  and  _367
REMARK  152  A    between atoms: _369  and  _371
REMARK  153  A    between atoms: _371  and  _372
REMARK  154  A    between atoms: _371  and  _374
REMARK  155  A    between atoms: _374  and  _375
REMARK  156  A    between atoms: _380  and  _381
REMARK  157  A    between atoms: _383  and  _385
REMARK  158  A    between atoms: _385  and  _386
REMARK  159  A    between atoms: _385  and  _388
REMARK  160  A    between atoms: _388  and  _389
REMARK  161  A    between atoms: _395  and  _397
REMARK  162  A    between atoms: _397  and  _398
REMARK  163  A    between atoms: _397  and  _400
REMARK  164  A    between atoms: _400  and  _401
REMARK  165  A    between atoms: _404  and  _406
REMARK  166  A    between atoms: _406  and  _407
REMARK  167  A    between atoms: _406  and  _409
REMARK  168  A    between atoms: _409  and  _410
REMARK  169  A    between atoms: _413  and  _415
REMARK  170  A    between atoms: _415  and  _416
REMARK  171  A    between atoms: _418  and  _420
REMARK  172  A    between atoms: _420  and  _421
REMARK  173  A    between atoms: _420  and  _423
REMARK  174  A    between atoms: _423  and  _424
REMARK  175  A    between atoms: _427  and  _429
REMARK  176  A    between atoms: _429  and  _430
REMARK  177  A    between atoms: _429  and  _432
REMARK  178  A    between atoms: _432  and  _433
REMARK  179  A    between atoms: _436  and  _438
REMARK  180  A    between atoms: _438  and  _439
REMARK  181  A    between atoms: _438  and  _441
REMARK  182  A    between atoms: _441  and  _442
REMARK  183  A    between atoms: _447  and  _449
REMARK  184  A    between atoms: _449  and  _450
REMARK  185  A    between atoms: _449  and  _452
REMARK  186  A    between atoms: _452  and  _453
REMARK  187  A    between atoms: _456  and  _458
REMARK  188  A    between atoms: _458  and  _459
REMARK  189  A    between atoms: _458  and  _461
REMARK  190  A    between atoms: _461  and  _462
REMARK  191  A    between atoms: _465  and  _467
REMARK  192  A    between atoms: _467  and  _468
REMARK  193  A    between atoms: _470  and  _472
REMARK  194  A    between atoms: _472  and  _473
REMARK  195  A    between atoms: _472  and  _475
REMARK  196  A    between atoms: _475  and  _476
REMARK  197  A    between atoms: _476  and  _477
REMARK  198  A    between atoms: _477  and  _478
REMARK  199  A    between atoms: _487  and  _489
REMARK  200  A    between atoms: _489  and  _490
REMARK  201  A    between atoms: _492  and  _494
REMARK  202  A    between atoms: _494  and  _495
REMARK  203  A    between atoms: _494  and  _497
REMARK  204  A    between atoms: _497  and  _498
REMARK  205  A    between atoms: _501  and  _503
REMARK  206  A    between atoms: _503  and  _504
REMARK  207  A    between atoms: _503  and  _512
REMARK  208  A    between atoms: _504  and  _505
REMARK  209  A    between atoms: _505  and  _506
REMARK  210  A    between atoms: _506  and  _507
REMARK  211  A    between atoms: _507  and  _508
REMARK  212  A    between atoms: _514  and  _516
REMARK  213  A    between atoms: _516  and  _517
REMARK  214  A    between atoms: _516  and  _519
REMARK  215  A    between atoms: _519  and  _520
REMARK  216  A    between atoms: _525  and  _527
REMARK  217  A    between atoms: _527  and  _528
REMARK  218  A    between atoms: _527  and  _530
REMARK  219  A    between atoms: _530  and  _531
REMARK  220  A    between atoms: _531  and  _532
REMARK  221  A    between atoms: _534  and  _536
REMARK  222  A    between atoms: _536  and  _537
REMARK  223  A    between atoms: _540  and  _542
REMARK  224  A    between atoms: _542  and  _543
REMARK  225  A    between atoms: _542  and  _545
REMARK  226  A    between atoms: _548  and  _550
REMARK  227  A    between atoms: _550  and  _551
REMARK  228  A    between atoms: _550  and  _553
REMARK  229  A    between atoms: _553  and  _554
REMARK  230  A    between atoms: _554  and  _555
REMARK  231  A    between atoms: _560  and  _562
REMARK  232  A    between atoms: _562  and  _563
REMARK  233  A    between atoms: _562  and  _565
REMARK  234  A    between atoms: _565  and  _566
REMARK                            x       y       z     vdW  Elec       q    Type
REMARK                         _______ _______ _______ _____ _____    ______ ____
ROOT
ATOM      1  O   HOH     1      40.511 -52.614  -7.079  0.00  0.00    +0.000 OA
ENDROOT
TORSDOF 0
REMARK  Name = ../refined-set-2016/4fut/4fut_pocket.pdb
REMARK  234 active torsions:
REMARK  status: ('A' for Active; 'I' for Inactive)
REMARK    1  A    between atoms: _1  and  _3
REMARK    2  A    between atoms: _3  and  _4
REMARK    3  A    between atoms: _3  and  _6
REMARK    4  A    between atoms: _6  and  _7
REMARK    5  A    between atoms: _12  and  _13
REMARK    6  A    between atoms: _15  and  _17
REMARK    7  A    between atoms: _17  and  _18
REMARK    8  A    between atoms: _17  and  _20
REMARK    9  A    between atoms: _20  and  _21
REMARK   10  A    between atoms: _24  and  _26
REMARK   11  A    between atoms: _26  and  _27
REMARK   12  A    between atoms: _26  and  _29
REMARK   13  A    between atoms: _29  and  _30
REMARK   14  A    between atoms: _35  and  _36
REMARK   15  A    between atoms: _38  and  _40
REMARK   16  A    between atoms: _40  and  _41
REMARK   17  A    between atoms: _40  and  _43
REMARK   18  A    between atoms: _43  and  _44
REMARK   19  A    between atoms: _47  and  _49
REMARK   20  A    between atoms: _49  and  _50
REMARK   21  A    between atoms: _49  and  _52
REMARK   22  A    between atoms: _52  and  _53
REMARK   23  A    between atoms: _55  and  _57
REMARK   24  A    between atoms: _57  and  _58
REMARK   25  A    between atoms: _60  and  _62
REMARK   26  A    between atoms: _62  and  _63
REMARK   27  A    between atoms: _62  and  _65
REMARK   28  A    between atoms: _65  and  _66
REMARK   29  A    between atoms: _69  and  _71
REMARK   30  A    between atoms: _71  and  _72
REMARK   31  A    between atoms: _71  and  _74
REMARK   32  A    between atoms: _74  and  _75
REMARK   33  A    between atoms: _78  and  _80
REMARK   34  A    between atoms: _80  and  _81
REMARK   35  A    between atoms: _83  and  _85
REMARK   36  A    between atoms: _85  and  _86
REMARK   37  A    between atoms: _85  and  _88
REMARK   38  A    between atoms: _88  and  _89
REMARK   39  A    between atoms: _89  and  _90
REMARK   40  A    between atoms: _90  and  _91
REMARK   41  A    between atoms: _100  and  _102
REMARK   42  A    between atoms: _102  and  _103
REMARK   43  A    between atoms: _102  and  _105
REMARK   44  A    between atoms: _105  and  _106
REMARK   45  A    between atoms: _108  and  _110
REMARK   46  A    between atoms: _110  and  _111
REMARK   47  A    between atoms: _110  and  _119
REMARK   48  A    between atoms: _111  and  _112
REMARK   49  A    between atoms: _112  and  _113
REMARK   50  A    between atoms: _113  and  _114
REMARK   51  A    between atoms: _114  and  _115
REMARK   52  A    between atoms: _121  and  _123
REMARK   53  A    between atoms: _123  and  _124
REMARK   54  A    between atoms: _123  and  _126
REMARK   55  A    between atoms: _126  and  _127
REMARK   56  A    between atoms: _132  and  _134
REMARK   57  A    between atoms: _134  and  _135
REMARK   58  A    between atoms: _134  and  _137
REMARK   59  A    between atoms: _137  and  _138
REMARK   60  A    between atoms: _141  and  _143
REMARK   61  A    between atoms: _143  and  _144
REMARK   62  A    between atoms: _143  and  _146
REMARK   63  A    between atoms: _146  and  _147
REMARK   64  A    between atoms: _153  and  _154
REMARK   65  A    between atoms: _159  and  _161
REMARK   66  A    between atoms: _161  and  _162
REMARK   67  A    between atoms: _161  and  _164
REMARK   68  A    between atoms: _164  and  _165
REMARK   69  A    between atoms: _167  and  _169
REMARK   70  A    between atoms: _169  and  _170
REMARK   71  A    between atoms: _172  and  _174
REMARK   72  A    between atoms: _174  and  _175
REMARK   73  A    between atoms: _174  and  _177
REMARK   74  A    between atoms: _177  and  _178
REMARK   75  A    between atoms: _180  and  _182
REMARK   76  A    between atoms: _182  and  _183
REMARK   77  A    between atoms: _187  and  _188
REMARK   78  A    between atoms: _193  and  _195
REMARK   79  A    between atoms: _195  and  _196
REMARK   80  A    between atoms: _195  and  _198
REMARK   81  A    between atoms: _198  and  _199
REMARK   82  A    between atoms: _202  and  _204
REMARK   83  A    between atoms: _204  and  _205
REMARK   84  A    between atoms: _204  and  _207
REMARK   85  A    between atoms: _207  and  _208
REMARK   86  A    between atoms: _211  and  _213
REMARK   87  A    between atoms: _213  and  _214
REMARK   88  A    between atoms: _213  and  _216
REMARK   89  A    between atoms: _216  and  _217
REMARK   90  A    between atoms: _217  and  _218
REMARK   91  A    between atoms: _221  and  _223
REMARK   92  A    between atoms: _223  and  _224
REMARK   93  A    between atoms: _223  and  _226
REMARK   94  A    between atoms: _226  and  _227
REMARK   95  A    between atoms: _227  and  _228
REMARK   96  A    between atoms: _228  and  _229
REMARK   97  A    between atoms: _238  and  _240
REMARK   98  A    between atoms: _240  and  _241
REMARK   99  A    between atoms: _240  and  _243
REMARK  100  A    between atoms: _243  and  _244
REMARK  101  A    between atoms: _249  and  _250
REMARK  102  A    between atoms: _252  and  _254
REMARK  103  A    between atoms: _254  and  _255
REMARK  104  A    between atoms: _257  and  _259
REMARK  105  A    between atoms: _259  and  _260
REMARK  106  A    between atoms: _259  and  _262
REMARK  107  A    between atoms: _262  and  _263
REMARK  108  A    between atoms: _263  and  _264
REMARK  109  A    between atoms: _266  and  _268
REMARK  110  A    between atoms: _268  and  _269
REMARK  111  A    between atoms: _268  and  _271
REMARK  112  A    between atoms: _271  and  _272
REMARK  113  A    between atoms: _275  and  _277
REMARK  114  A    between atoms: _277  and  _278
REMARK  115  A    between atoms: _277  and  _280
REMARK  116  A    between atoms: _280  and  _281
REMARK  117  A    between atoms: _281  and  _282
REMARK  118  A    between atoms: _285  and  _287
REMARK  119  A    between atoms: _287  and  _288
REMARK  120  A    between atoms: _287  and  _290
REMARK  121  A    between atoms: _290  and  _291
REMARK  122  A    between atoms: _294  and  _296
REMARK  123  A    between atoms: _296  and  _297
REMARK  124  A    between atoms: _296  and  _299
REMARK  125  A    between atoms: _299  and  _300
REMARK  126  A    between atoms: _305  and  _307
REMARK  127  A    between atoms: _307  and  _308
REMARK  128  A    between atoms: _307  and  _310
REMARK  129  A    between atoms: _310  and  _311
REMARK  130  A    between atoms: _311  and  _312
REMARK  131  A    between atoms: _314  and  _316
REMARK  132  A    between atoms: _316  and  _317
REMARK  133  A    between atoms: _316  and  _319
REMARK  134  A    between atoms: _319  and  _320
REMARK  135  A    between atoms: _325  and  _327
REMARK  136  A    between atoms: _327  and  _328
REMARK  137  A    between atoms: _327  and  _330
REMARK  138  A    between atoms: _330  and  _331
REMARK  139  A    between atoms: _334  and  _336
REMARK  140  A    between atoms: _336  and  _337
REMARK  141  A    between atoms: _336  and  _339
REMARK  142  A    between atoms: _339  and  _340
REMARK  143  A    between atoms: _345  and  _347
REMARK  144  A    between atoms: _347  and  _348
REMARK  145  A    between atoms: _350  and  _352
REMARK  146  A    between atoms: _352  and  _353
REMARK  147  A    between atoms: _356  and  _358
REMARK  148  A    between atoms: _358  and  _359
REMARK  149  A    between atoms: _358  and  _361
REMARK  150  A    between atoms: _364  and  _366
REMARK  151  A    between atoms: _366  and  _367
REMARK  152  A    between atoms: _369  and  _371
REMARK  153  A    between atoms: _371  and  _372
REMARK  154  A    between atoms: _371  and  _374
REMARK  155  A    between atoms: _374  and  _375
REMARK  156  A    between atoms: _380  and  _381
REMARK  157  A    between atoms: _383  and  _385
REMARK  158  A    between atoms: _385  and  _386
REMARK  159  A    between atoms: _385  and  _388
REMARK  160  A    between atoms: _388  and  _389
REMARK  161  A    between atoms: _395  and  _397
REMARK  162  A    between atoms: _397  and  _398
REMARK  163  A    between atoms: _397  and  _400
REMARK  164  A    between atoms: _400  and  _401
REMARK  165  A    between atoms: _404  and  _406
REMARK  166  A    between atoms: _406  and  _407
REMARK  167  A    between atoms: _406  and  _409
REMARK  168  A    between atoms: _409  and  _410
REMARK  169  A    between atoms: _413  and  _415
REMARK  170  A    between atoms: _415  and  _416
REMARK  171  A    between atoms: _418  and  _420
REMARK  172  A    between atoms: _420  and  _421
REMARK  173  A    between atoms: _420  and  _423
REMARK  174  A    between atoms: _423  and  _424
REMARK  175  A    between atoms: _427  and  _429
REMARK  176  A    between atoms: _429  and  _430
REMARK  177  A    between atoms: _429  and  _432
REMARK  178  A    between atoms: _432  and  _433
REMARK  179  A    between atoms: _436  and  _438
REMARK  180  A    between atoms: _438  and  _439
REMARK  181  A    between atoms: _438  and  _441
REMARK  182  A    between atoms: _441  and  _442
REMARK  183  A    between atoms: _447  and  _449
REMARK  184  A    between atoms: _449  and  _450
REMARK  185  A    between atoms: _449  and  _452
REMARK  186  A    between atoms: _452  and  _453
REMARK  187  A    between atoms: _456  and  _458
REMARK  188  A    between atoms: _458  and  _459
REMARK  189  A    between atoms: _458  and  _461
REMARK  190  A    between atoms: _461  and  _462
REMARK  191  A    between atoms: _465  and  _467
REMARK  192  A    between atoms: _467  and  _468
REMARK  193  A    between atoms: _470  and  _472
REMARK  194  A    between atoms: _472  and  _473
REMARK  195  A    between atoms: _472  and  _475
REMARK  196  A    between atoms: _475  and  _476
REMARK  197  A    between atoms: _476  and  _477
REMARK  198  A    between atoms: _477  and  _478
REMARK  199  A    between atoms: _487  and  _489
REMARK  200  A    between atoms: _489  and  _490
REMARK  201  A    between atoms: _492  and  _494
REMARK  202  A    between atoms: _494  and  _495
REMARK  203  A    between atoms: _494  and  _497
REMARK  204  A    between atoms: _497  and  _498
REMARK  205  A    between atoms: _501  and  _503
REMARK  206  A    between atoms: _503  and  _504
REMARK  207  A    between atoms: _503  and  _512
REMARK  208  A    between atoms: _504  and  _505
REMARK  209  A    between atoms: _505  and  _506
REMARK  210  A    between atoms: _506  and  _507
REMARK  211  A    between atoms: _507  and  _508
REMARK  212  A    between atoms: _514  and  _516
REMARK  213  A    between atoms: _516  and  _517
REMARK  214  A    between atoms: _516  and  _519
REMARK  215  A    between atoms: _519  and  _520
REMARK  216  A    between atoms: _525  and  _527
REMARK  217  A    between atoms: _527  and  _528
REMARK  218  A    between atoms: _527  and  _530
REMARK  219  A    between atoms: _530  and  _531
REMARK  220  A    between atoms: _531  and  _532
REMARK  221  A    between atoms: _534  and  _536
REMARK  222  A    between atoms: _536  and  _537
REMARK  223  A    between atoms: _540  and  _542
REMARK  224  A    between atoms: _542  and  _543
REMARK  225  A    between atoms: _542  and  _545
REMARK  226  A    between atoms: _548  and  _550
REMARK  227  A    between atoms: _550  and  _551
REMARK  228  A    between atoms: _550  and  _553
REMARK  229  A    between atoms: _553  and  _554
REMARK  230  A    between atoms: _554  and  _555
REMARK  231  A    between atoms: _560  and  _562
REMARK  232  A    between atoms: _562  and  _563
REMARK  233  A    between atoms: _562  and  _565
REMARK  234  A    between atoms: _565  and  _566
REMARK                            x       y       z     vdW  Elec       q    Type
REMARK                         _______ _______ _______ _____ _____    ______ ____
ROOT
ATOM      1  O   HOH     1      29.274 -61.475  -2.812  0.00  0.00    +0.000 OA
ENDROOT
TORSDOF 0
REMARK  Name = ../refined-set-2016/4fut/4fut_pocket.pdb
REMARK  234 active torsions:
REMARK  status: ('A' for Active; 'I' for Inactive)
REMARK    1  A    between atoms: _1  and  _3
REMARK    2  A    between atoms: _3  and  _4
REMARK    3  A    between atoms: _3  and  _6
REMARK    4  A    between atoms: _6  and  _7
REMARK    5  A    between atoms: _12  and  _13
REMARK    6  A    between atoms: _15  and  _17
REMARK    7  A    between atoms: _17  and  _18
REMARK    8  A    between atoms: _17  and  _20
REMARK    9  A    between atoms: _20  and  _21
REMARK   10  A    between atoms: _24  and  _26
REMARK   11  A    between atoms: _26  and  _27
REMARK   12  A    between atoms: _26  and  _29
REMARK   13  A    between atoms: _29  and  _30
REMARK   14  A    between atoms: _35  and  _36
REMARK   15  A    between atoms: _38  and  _40
REMARK   16  A    between atoms: _40  and  _41
REMARK   17  A    between atoms: _40  and  _43
REMARK   18  A    between atoms: _43  and  _44
REMARK   19  A    between atoms: _47  and  _49
REMARK   20  A    between atoms: _49  and  _50
REMARK   21  A    between atoms: _49  and  _52
REMARK   22  A    between atoms: _52  and  _53
REMARK   23  A    between atoms: _55  and  _57
REMARK   24  A    between atoms: _57  and  _58
REMARK   25  A    between atoms: _60  and  _62
REMARK   26  A    between atoms: _62  and  _63
REMARK   27  A    between atoms: _62  and  _65
REMARK   28  A    between atoms: _65  and  _66
REMARK   29  A    between atoms: _69  and  _71
REMARK   30  A    between atoms: _71  and  _72
REMARK   31  A    between atoms: _71  and  _74
REMARK   32  A    between atoms: _74  and  _75
REMARK   33  A    between atoms: _78  and  _80
REMARK   34  A    between atoms: _80  and  _81
REMARK   35  A    between atoms: _83  and  _85
REMARK   36  A    between atoms: _85  and  _86
REMARK   37  A    between atoms: _85  and  _88
REMARK   38  A    between atoms: _88  and  _89
REMARK   39  A    between atoms: _89  and  _90
REMARK   40  A    between atoms: _90  and  _91
REMARK   41  A    between atoms: _100  and  _102
REMARK   42  A    between atoms: _102  and  _103
REMARK   43  A    between atoms: _102  and  _105
REMARK   44  A    between atoms: _105  and  _106
REMARK   45  A    between atoms: _108  and  _110
REMARK   46  A    between atoms: _110  and  _111
REMARK   47  A    between atoms: _110  and  _119
REMARK   48  A    between atoms: _111  and  _112
REMARK   49  A    between atoms: _112  and  _113
REMARK   50  A    between atoms: _113  and  _114
REMARK   51  A    between atoms: _114  and  _115
REMARK   52  A    between atoms: _121  and  _123
REMARK   53  A    between atoms: _123  and  _124
REMARK   54  A    between atoms: _123  and  _126
REMARK   55  A    between atoms: _126  and  _127
REMARK   56  A    between atoms: _132  and  _134
REMARK   57  A    between atoms: _134  and  _135
REMARK   58  A    between atoms: _134  and  _137
REMARK   59  A    between atoms: _137  and  _138
REMARK   60  A    between atoms: _141  and  _143
REMARK   61  A    between atoms: _143  and  _144
REMARK   62  A    between atoms: _143  and  _146
REMARK   63  A    between atoms: _146  and  _147
REMARK   64  A    between atoms: _153  and  _154
REMARK   65  A    between atoms: _159  and  _161
REMARK   66  A    between atoms: _161  and  _162
REMARK   67  A    between atoms: _161  and  _164
REMARK   68  A    between atoms: _164  and  _165
REMARK   69  A    between atoms: _167  and  _169
REMARK   70  A    between atoms: _169  and  _170
REMARK   71  A    between atoms: _172  and  _174
REMARK   72  A    between atoms: _174  and  _175
REMARK   73  A    between atoms: _174  and  _177
REMARK   74  A    between atoms: _177  and  _178
REMARK   75  A    between atoms: _180  and  _182
REMARK   76  A    between atoms: _182  and  _183
REMARK   77  A    between atoms: _187  and  _188
REMARK   78  A    between atoms: _193  and  _195
REMARK   79  A    between atoms: _195  and  _196
REMARK   80  A    between atoms: _195  and  _198
REMARK   81  A    between atoms: _198  and  _199
REMARK   82  A    between atoms: _202  and  _204
REMARK   83  A    between atoms: _204  and  _205
REMARK   84  A    between atoms: _204  and  _207
REMARK   85  A    between atoms: _207  and  _208
REMARK   86  A    between atoms: _211  and  _213
REMARK   87  A    between atoms: _213  and  _214
REMARK   88  A    between atoms: _213  and  _216
REMARK   89  A    between atoms: _216  and  _217
REMARK   90  A    between atoms: _217  and  _218
REMARK   91  A    between atoms: _221  and  _223
REMARK   92  A    between atoms: _223  and  _224
REMARK   93  A    between atoms: _223  and  _226
REMARK   94  A    between atoms: _226  and  _227
REMARK   95  A    between atoms: _227  and  _228
REMARK   96  A    between atoms: _228  and  _229
REMARK   97  A    between atoms: _238  and  _240
REMARK   98  A    between atoms: _240  and  _241
REMARK   99  A    between atoms: _240  and  _243
REMARK  100  A    between atoms: _243  and  _244
REMARK  101  A    between atoms: _249  and  _250
REMARK  102  A    between atoms: _252  and  _254
REMARK  103  A    between atoms: _254  and  _255
REMARK  104  A    between atoms: _257  and  _259
REMARK  105  A    between atoms: _259  and  _260
REMARK  106  A    between atoms: _259  and  _262
REMARK  107  A    between atoms: _262  and  _263
REMARK  108  A    between atoms: _263  and  _264
REMARK  109  A    between atoms: _266  and  _268
REMARK  110  A    between atoms: _268  and  _269
REMARK  111  A    between atoms: _268  and  _271
REMARK  112  A    between atoms: _271  and  _272
REMARK  113  A    between atoms: _275  and  _277
REMARK  114  A    between atoms: _277  and  _278
REMARK  115  A    between atoms: _277  and  _280
REMARK  116  A    between atoms: _280  and  _281
REMARK  117  A    between atoms: _281  and  _282
REMARK  118  A    between atoms: _285  and  _287
REMARK  119  A    between atoms: _287  and  _288
REMARK  120  A    between atoms: _287  and  _290
REMARK  121  A    between atoms: _290  and  _291
REMARK  122  A    between atoms: _294  and  _296
REMARK  123  A    between atoms: _296  and  _297
REMARK  124  A    between atoms: _296  and  _299
REMARK  125  A    between atoms: _299  and  _300
REMARK  126  A    between atoms: _305  and  _307
REMARK  127  A    between atoms: _307  and  _308
REMARK  128  A    between atoms: _307  and  _310
REMARK  129  A    between atoms: _310  and  _311
REMARK  130  A    between atoms: _311  and  _312
REMARK  131  A    between atoms: _314  and  _316
REMARK  132  A    between atoms: _316  and  _317
REMARK  133  A    between atoms: _316  and  _319
REMARK  134  A    between atoms: _319  and  _320
REMARK  135  A    between atoms: _325  and  _327
REMARK  136  A    between atoms: _327  and  _328
REMARK  137  A    between atoms: _327  and  _330
REMARK  138  A    between atoms: _330  and  _331
REMARK  139  A    between atoms: _334  and  _336
REMARK  140  A    between atoms: _336  and  _337
REMARK  141  A    between atoms: _336  and  _339
REMARK  142  A    between atoms: _339  and  _340
REMARK  143  A    between atoms: _345  and  _347
REMARK  144  A    between atoms: _347  and  _348
REMARK  145  A    between atoms: _350  and  _352
REMARK  146  A    between atoms: _352  and  _353
REMARK  147  A    between atoms: _356  and  _358
REMARK  148  A    between atoms: _358  and  _359
REMARK  149  A    between atoms: _358  and  _361
REMARK  150  A    between atoms: _364  and  _366
REMARK  151  A    between atoms: _366  and  _367
REMARK  152  A    between atoms: _369  and  _371
REMARK  153  A    between atoms: _371  and  _372
REMARK  154  A    between atoms: _371  and  _374
REMARK  155  A    between atoms: _374  and  _375
REMARK  156  A    between atoms: _380  and  _381
REMARK  157  A    between atoms: _383  and  _385
REMARK  158  A    between atoms: _385  and  _386
REMARK  159  A    between atoms: _385  and  _388
REMARK  160  A    between atoms: _388  and  _389
REMARK  161  A    between atoms: _395  and  _397
REMARK  162  A    between atoms: _397  and  _398
REMARK  163  A    between atoms: _397  and  _400
REMARK  164  A    between atoms: _400  and  _401
REMARK  165  A    between atoms: _404  and  _406
REMARK  166  A    between atoms: _406  and  _407
REMARK  167  A    between atoms: _406  and  _409
REMARK  168  A    between atoms: _409  and  _410
REMARK  169  A    between atoms: _413  and  _415
REMARK  170  A    between atoms: _415  and  _416
REMARK  171  A    between atoms: _418  and  _420
REMARK  172  A    between atoms: _420  and  _421
REMARK  173  A    between atoms: _420  and  _423
REMARK  174  A    between atoms: _423  and  _424
REMARK  175  A    between atoms: _427  and  _429
REMARK  176  A    between atoms: _429  and  _430
REMARK  177  A    between atoms: _429  and  _432
REMARK  178  A    between atoms: _432  and  _433
REMARK  179  A    between atoms: _436  and  _438
REMARK  180  A    between atoms: _438  and  _439
REMARK  181  A    between atoms: _438  and  _441
REMARK  182  A    between atoms: _441  and  _442
REMARK  183  A    between atoms: _447  and  _449
REMARK  184  A    between atoms: _449  and  _450
REMARK  185  A    between atoms: _449  and  _452
REMARK  186  A    between atoms: _452  and  _453
REMARK  187  A    between atoms: _456  and  _458
REMARK  188  A    between atoms: _458  and  _459
REMARK  189  A    between atoms: _458  and  _461
REMARK  190  A    between atoms: _461  and  _462
REMARK  191  A    between atoms: _465  and  _467
REMARK  192  A    between atoms: _467  and  _468
REMARK  193  A    between atoms: _470  and  _472
REMARK  194  A    between atoms: _472  and  _473
REMARK  195  A    between atoms: _472  and  _475
REMARK  196  A    between atoms: _475  and  _476
REMARK  197  A    between atoms: _476  and  _477
REMARK  198  A    between atoms: _477  and  _478
REMARK  199  A    between atoms: _487  and  _489
REMARK  200  A    between atoms: _489  and  _490
REMARK  201  A    between atoms: _492  and  _494
REMARK  202  A    between atoms: _494  and  _495
REMARK  203  A    between atoms: _494  and  _497
REMARK  204  A    between atoms: _497  and  _498
REMARK  205  A    between atoms: _501  and  _503
REMARK  206  A    between atoms: _503  and  _504
REMARK  207  A    between atoms: _503  and  _512
REMARK  208  A    between atoms: _504  and  _505
REMARK  209  A    between atoms: _505  and  _506
REMARK  210  A    between atoms: _506  and  _507
REMARK  211  A    between atoms: _507  and  _508
REMARK  212  A    between atoms: _514  and  _516
REMARK  213  A    between atoms: _516  and  _517
REMARK  214  A    between atoms: _516  and  _519
REMARK  215  A    between atoms: _519  and  _520
REMARK  216  A    between atoms: _525  and  _527
REMARK  217  A    between atoms: _527  and  _528
REMARK  218  A    between atoms: _527  and  _530
REMARK  219  A    between atoms: _530  and  _531
REMARK  220  A    between atoms: _531  and  _532
REMARK  221  A    between atoms: _534  and  _536
REMARK  222  A    between atoms: _536  and  _537
REMARK  223  A    between atoms: _540  and  _542
REMARK  224  A    between atoms: _542  and  _543
REMARK  225  A    between atoms: _542  and  _545
REMARK  226  A    between atoms: _548  and  _550
REMARK  227  A    between atoms: _550  and  _551
REMARK  228  A    between atoms: _550  and  _553
REMARK  229  A    between atoms: _553  and  _554
REMARK  230  A    between atoms: _554  and  _555
REMARK  231  A    between atoms: _560  and  _562
REMARK  232  A    between atoms: _562  and  _563
REMARK  233  A    between atoms: _562  and  _565
REMARK  234  A    between atoms: _565  and  _566
REMARK                            x       y       z     vdW  Elec       q    Type
REMARK                         _______ _______ _______ _____ _____    ______ ____
ROOT
ATOM      1  O   HOH     1      28.331 -58.097   0.849  0.00  0.00    +0.000 OA
ENDROOT
TORSDOF 0
REMARK  Name = ../refined-set-2016/4fut/4fut_pocket.pdb
REMARK  234 active torsions:
REMARK  status: ('A' for Active; 'I' for Inactive)
REMARK    1  A    between atoms: _1  and  _3
REMARK    2  A    between atoms: _3  and  _4
REMARK    3  A    between atoms: _3  and  _6
REMARK    4  A    between atoms: _6  and  _7
REMARK    5  A    between atoms: _12  and  _13
REMARK    6  A    between atoms: _15  and  _17
REMARK    7  A    between atoms: _17  and  _18
REMARK    8  A    between atoms: _17  and  _20
REMARK    9  A    between atoms: _20  and  _21
REMARK   10  A    between atoms: _24  and  _26
REMARK   11  A    between atoms: _26  and  _27
REMARK   12  A    between atoms: _26  and  _29
REMARK   13  A    between atoms: _29  and  _30
REMARK   14  A    between atoms: _35  and  _36
REMARK   15  A    between atoms: _38  and  _40
REMARK   16  A    between atoms: _40  and  _41
REMARK   17  A    between atoms: _40  and  _43
REMARK   18  A    between atoms: _43  and  _44
REMARK   19  A    between atoms: _47  and  _49
REMARK   20  A    between atoms: _49  and  _50
REMARK   21  A    between atoms: _49  and  _52
REMARK   22  A    between atoms: _52  and  _53
REMARK   23  A    between atoms: _55  and  _57
REMARK   24  A    between atoms: _57  and  _58
REMARK   25  A    between atoms: _60  and  _62
REMARK   26  A    between atoms: _62  and  _63
REMARK   27  A    between atoms: _62  and  _65
REMARK   28  A    between atoms: _65  and  _66
REMARK   29  A    between atoms: _69  and  _71
REMARK   30  A    between atoms: _71  and  _72
REMARK   31  A    between atoms: _71  and  _74
REMARK   32  A    between atoms: _74  and  _75
REMARK   33  A    between atoms: _78  and  _80
REMARK   34  A    between atoms: _80  and  _81
REMARK   35  A    between atoms: _83  and  _85
REMARK   36  A    between atoms: _85  and  _86
REMARK   37  A    between atoms: _85  and  _88
REMARK   38  A    between atoms: _88  and  _89
REMARK   39  A    between atoms: _89  and  _90
REMARK   40  A    between atoms: _90  and  _91
REMARK   41  A    between atoms: _100  and  _102
REMARK   42  A    between atoms: _102  and  _103
REMARK   43  A    between atoms: _102  and  _105
REMARK   44  A    between atoms: _105  and  _106
REMARK   45  A    between atoms: _108  and  _110
REMARK   46  A    between atoms: _110  and  _111
REMARK   47  A    between atoms: _110  and  _119
REMARK   48  A    between atoms: _111  and  _112
REMARK   49  A    between atoms: _112  and  _113
REMARK   50  A    between atoms: _113  and  _114
REMARK   51  A    between atoms: _114  and  _115
REMARK   52  A    between atoms: _121  and  _123
REMARK   53  A    between atoms: _123  and  _124
REMARK   54  A    between atoms: _123  and  _126
REMARK   55  A    between atoms: _126  and  _127
REMARK   56  A    between atoms: _132  and  _134
REMARK   57  A    between atoms: _134  and  _135
REMARK   58  A    between atoms: _134  and  _137
REMARK   59  A    between atoms: _137  and  _138
REMARK   60  A    between atoms: _141  and  _143
REMARK   61  A    between atoms: _143  and  _144
REMARK   62  A    between atoms: _143  and  _146
REMARK   63  A    between atoms: _146  and  _147
REMARK   64  A    between atoms: _153  and  _154
REMARK   65  A    between atoms: _159  and  _161
REMARK   66  A    between atoms: _161  and  _162
REMARK   67  A    between atoms: _161  and  _164
REMARK   68  A    between atoms: _164  and  _165
REMARK   69  A    between atoms: _167  and  _169
REMARK   70  A    between atoms: _169  and  _170
REMARK   71  A    between atoms: _172  and  _174
REMARK   72  A    between atoms: _174  and  _175
REMARK   73  A    between atoms: _174  and  _177
REMARK   74  A    between atoms: _177  and  _178
REMARK   75  A    between atoms: _180  and  _182
REMARK   76  A    between atoms: _182  and  _183
REMARK   77  A    between atoms: _187  and  _188
REMARK   78  A    between atoms: _193  and  _195
REMARK   79  A    between atoms: _195  and  _196
REMARK   80  A    between atoms: _195  and  _198
REMARK   81  A    between atoms: _198  and  _199
REMARK   82  A    between atoms: _202  and  _204
REMARK   83  A    between atoms: _204  and  _205
REMARK   84  A    between atoms: _204  and  _207
REMARK   85  A    between atoms: _207  and  _208
REMARK   86  A    between atoms: _211  and  _213
REMARK   87  A    between atoms: _213  and  _214
REMARK   88  A    between atoms: _213  and  _216
REMARK   89  A    between atoms: _216  and  _217
REMARK   90  A    between atoms: _217  and  _218
REMARK   91  A    between atoms: _221  and  _223
REMARK   92  A    between atoms: _223  and  _224
REMARK   93  A    between atoms: _223  and  _226
REMARK   94  A    between atoms: _226  and  _227
REMARK   95  A    between atoms: _227  and  _228
REMARK   96  A    between atoms: _228  and  _229
REMARK   97  A    between atoms: _238  and  _240
REMARK   98  A    between atoms: _240  and  _241
REMARK   99  A    between atoms: _240  and  _243
REMARK  100  A    between atoms: _243  and  _244
REMARK  101  A    between atoms: _249  and  _250
REMARK  102  A    between atoms: _252  and  _254
REMARK  103  A    between atoms: _254  and  _255
REMARK  104  A    between atoms: _257  and  _259
REMARK  105  A    between atoms: _259  and  _260
REMARK  106  A    between atoms: _259  and  _262
REMARK  107  A    between atoms: _262  and  _263
REMARK  108  A    between atoms: _263  and  _264
REMARK  109  A    between atoms: _266  and  _268
REMARK  110  A    between atoms: _268  and  _269
REMARK  111  A    between atoms: _268  and  _271
REMARK  112  A    between atoms: _271  and  _272
REMARK  113  A    between atoms: _275  and  _277
REMARK  114  A    between atoms: _277  and  _278
REMARK  115  A    between atoms: _277  and  _280
REMARK  116  A    between atoms: _280  and  _281
REMARK  117  A    between atoms: _281  and  _282
REMARK  118  A    between atoms: _285  and  _287
REMARK  119  A    between atoms: _287  and  _288
REMARK  120  A    between atoms: _287  and  _290
REMARK  121  A    between atoms: _290  and  _291
REMARK  122  A    between atoms: _294  and  _296
REMARK  123  A    between atoms: _296  and  _297
REMARK  124  A    between atoms: _296  and  _299
REMARK  125  A    between atoms: _299  and  _300
REMARK  126  A    between atoms: _305  and  _307
REMARK  127  A    between atoms: _307  and  _308
REMARK  128  A    between atoms: _307  and  _310
REMARK  129  A    between atoms: _310  and  _311
REMARK  130  A    between atoms: _311  and  _312
REMARK  131  A    between atoms: _314  and  _316
REMARK  132  A    between atoms: _316  and  _317
REMARK  133  A    between atoms: _316  and  _319
REMARK  134  A    between atoms: _319  and  _320
REMARK  135  A    between atoms: _325  and  _327
REMARK  136  A    between atoms: _327  and  _328
REMARK  137  A    between atoms: _327  and  _330
REMARK  138  A    between atoms: _330  and  _331
REMARK  139  A    between atoms: _334  and  _336
REMARK  140  A    between atoms: _336  and  _337
REMARK  141  A    between atoms: _336  and  _339
REMARK  142  A    between atoms: _339  and  _340
REMARK  143  A    between atoms: _345  and  _347
REMARK  144  A    between atoms: _347  and  _348
REMARK  145  A    between atoms: _350  and  _352
REMARK  146  A    between atoms: _352  and  _353
REMARK  147  A    between atoms: _356  and  _358
REMARK  148  A    between atoms: _358  and  _359
REMARK  149  A    between atoms: _358  and  _361
REMARK  150  A    between atoms: _364  and  _366
REMARK  151  A    between atoms: _366  and  _367
REMARK  152  A    between atoms: _369  and  _371
REMARK  153  A    between atoms: _371  and  _372
REMARK  154  A    between atoms: _371  and  _374
REMARK  155  A    between atoms: _374  and  _375
REMARK  156  A    between atoms: _380  and  _381
REMARK  157  A    between atoms: _383  and  _385
REMARK  158  A    between atoms: _385  and  _386
REMARK  159  A    between atoms: _385  and  _388
REMARK  160  A    between atoms: _388  and  _389
REMARK  161  A    between atoms: _395  and  _397
REMARK  162  A    between atoms: _397  and  _398
REMARK  163  A    between atoms: _397  and  _400
REMARK  164  A    between atoms: _400  and  _401
REMARK  165  A    between atoms: _404  and  _406
REMARK  166  A    between atoms: _406  and  _407
REMARK  167  A    between atoms: _406  and  _409
REMARK  168  A    between atoms: _409  and  _410
REMARK  169  A    between atoms: _413  and  _415
REMARK  170  A    between atoms: _415  and  _416
REMARK  171  A    between atoms: _418  and  _420
REMARK  172  A    between atoms: _420  and  _421
REMARK  173  A    between atoms: _420  and  _423
REMARK  174  A    between atoms: _423  and  _424
REMARK  175  A    between atoms: _427  and  _429
REMARK  176  A    between atoms: _429  and  _430
REMARK  177  A    between atoms: _429  and  _432
REMARK  178  A    between atoms: _432  and  _433
REMARK  179  A    between atoms: _436  and  _438
REMARK  180  A    between atoms: _438  and  _439
REMARK  181  A    between atoms: _438  and  _441
REMARK  182  A    between atoms: _441  and  _442
REMARK  183  A    between atoms: _447  and  _449
REMARK  184  A    between atoms: _449  and  _450
REMARK  185  A    between atoms: _449  and  _452
REMARK  186  A    between atoms: _452  and  _453
REMARK  187  A    between atoms: _456  and  _458
REMARK  188  A    between atoms: _458  and  _459
REMARK  189  A    between atoms: _458  and  _461
REMARK  190  A    between atoms: _461  and  _462
REMARK  191  A    between atoms: _465  and  _467
REMARK  192  A    between atoms: _467  and  _468
REMARK  193  A    between atoms: _470  and  _472
REMARK  194  A    between atoms: _472  and  _473
REMARK  195  A    between atoms: _472  and  _475
REMARK  196  A    between atoms: _475  and  _476
REMARK  197  A    between atoms: _476  and  _477
REMARK  198  A    between atoms: _477  and  _478
REMARK  199  A    between atoms: _487  and  _489
REMARK  200  A    between atoms: _489  and  _490
REMARK  201  A    between atoms: _492  and  _494
REMARK  202  A    between atoms: _494  and  _495
REMARK  203  A    between atoms: _494  and  _497
REMARK  204  A    between atoms: _497  and  _498
REMARK  205  A    between atoms: _501  and  _503
REMARK  206  A    between atoms: _503  and  _504
REMARK  207  A    between atoms: _503  and  _512
REMARK  208  A    between atoms: _504  and  _505
REMARK  209  A    between atoms: _505  and  _506
REMARK  210  A    between atoms: _506  and  _507
REMARK  211  A    between atoms: _507  and  _508
REMARK  212  A    between atoms: _514  and  _516
REMARK  213  A    between atoms: _516  and  _517
REMARK  214  A    between atoms: _516  and  _519
REMARK  215  A    between atoms: _519  and  _520
REMARK  216  A    between atoms: _525  and  _527
REMARK  217  A    between atoms: _527  and  _528
REMARK  218  A    between atoms: _527  and  _530
REMARK  219  A    between atoms: _530  and  _531
REMARK  220  A    between atoms: _531  and  _532
REMARK  221  A    between atoms: _534  and  _536
REMARK  222  A    between atoms: _536  and  _537
REMARK  223  A    between atoms: _540  and  _542
REMARK  224  A    between atoms: _542  and  _543
REMARK  225  A    between atoms: _542  and  _545
REMARK  226  A    between atoms: _548  and  _550
REMARK  227  A    between atoms: _550  and  _551
REMARK  228  A    between atoms: _550  and  _553
REMARK  229  A    between atoms: _553  and  _554
REMARK  230  A    between atoms: _554  and  _555
REMARK  231  A    between atoms: _560  and  _562
REMARK  232  A    between atoms: _562  and  _563
REMARK  233  A    between atoms: _562  and  _565
REMARK  234  A    between atoms: _565  and  _566
REMARK                            x       y       z     vdW  Elec       q    Type
REMARK                         _______ _______ _______ _____ _____    ______ ____
ROOT
ATOM      1  O   HOH     1      32.136 -57.204   0.524  0.00  0.00    +0.000 OA
ENDROOT
TORSDOF 0
REMARK  Name = ../refined-set-2016/4fut/4fut_pocket.pdb
REMARK  234 active torsions:
REMARK  status: ('A' for Active; 'I' for Inactive)
REMARK    1  A    between atoms: _1  and  _3
REMARK    2  A    between atoms: _3  and  _4
REMARK    3  A    between atoms: _3  and  _6
REMARK    4  A    between atoms: _6  and  _7
REMARK    5  A    between atoms: _12  and  _13
REMARK    6  A    between atoms: _15  and  _17
REMARK    7  A    between atoms: _17  and  _18
REMARK    8  A    between atoms: _17  and  _20
REMARK    9  A    between atoms: _20  and  _21
REMARK   10  A    between atoms: _24  and  _26
REMARK   11  A    between atoms: _26  and  _27
REMARK   12  A    between atoms: _26  and  _29
REMARK   13  A    between atoms: _29  and  _30
REMARK   14  A    between atoms: _35  and  _36
REMARK   15  A    between atoms: _38  and  _40
REMARK   16  A    between atoms: _40  and  _41
REMARK   17  A    between atoms: _40  and  _43
REMARK   18  A    between atoms: _43  and  _44
REMARK   19  A    between atoms: _47  and  _49
REMARK   20  A    between atoms: _49  and  _50
REMARK   21  A    between atoms: _49  and  _52
REMARK   22  A    between atoms: _52  and  _53
REMARK   23  A    between atoms: _55  and  _57
REMARK   24  A    between atoms: _57  and  _58
REMARK   25  A    between atoms: _60  and  _62
REMARK   26  A    between atoms: _62  and  _63
REMARK   27  A    between atoms: _62  and  _65
REMARK   28  A    between atoms: _65  and  _66
REMARK   29  A    between atoms: _69  and  _71
REMARK   30  A    between atoms: _71  and  _72
REMARK   31  A    between atoms: _71  and  _74
REMARK   32  A    between atoms: _74  and  _75
REMARK   33  A    between atoms: _78  and  _80
REMARK   34  A    between atoms: _80  and  _81
REMARK   35  A    between atoms: _83  and  _85
REMARK   36  A    between atoms: _85  and  _86
REMARK   37  A    between atoms: _85  and  _88
REMARK   38  A    between atoms: _88  and  _89
REMARK   39  A    between atoms: _89  and  _90
REMARK   40  A    between atoms: _90  and  _91
REMARK   41  A    between atoms: _100  and  _102
REMARK   42  A    between atoms: _102  and  _103
REMARK   43  A    between atoms: _102  and  _105
REMARK   44  A    between atoms: _105  and  _106
REMARK   45  A    between atoms: _108  and  _110
REMARK   46  A    between atoms: _110  and  _111
REMARK   47  A    between atoms: _110  and  _119
REMARK   48  A    between atoms: _111  and  _112
REMARK   49  A    between atoms: _112  and  _113
REMARK   50  A    between atoms: _113  and  _114
REMARK   51  A    between atoms: _114  and  _115
REMARK   52  A    between atoms: _121  and  _123
REMARK   53  A    between atoms: _123  and  _124
REMARK   54  A    between atoms: _123  and  _126
REMARK   55  A    between atoms: _126  and  _127
REMARK   56  A    between atoms: _132  and  _134
REMARK   57  A    between atoms: _134  and  _135
REMARK   58  A    between atoms: _134  and  _137
REMARK   59  A    between atoms: _137  and  _138
REMARK   60  A    between atoms: _141  and  _143
REMARK   61  A    between atoms: _143  and  _144
REMARK   62  A    between atoms: _143  and  _146
REMARK   63  A    between atoms: _146  and  _147
REMARK   64  A    between atoms: _153  and  _154
REMARK   65  A    between atoms: _159  and  _161
REMARK   66  A    between atoms: _161  and  _162
REMARK   67  A    between atoms: _161  and  _164
REMARK   68  A    between atoms: _164  and  _165
REMARK   69  A    between atoms: _167  and  _169
REMARK   70  A    between atoms: _169  and  _170
REMARK   71  A    between atoms: _172  and  _174
REMARK   72  A    between atoms: _174  and  _175
REMARK   73  A    between atoms: _174  and  _177
REMARK   74  A    between atoms: _177  and  _178
REMARK   75  A    between atoms: _180  and  _182
REMARK   76  A    between atoms: _182  and  _183
REMARK   77  A    between atoms: _187  and  _188
REMARK   78  A    between atoms: _193  and  _195
REMARK   79  A    between atoms: _195  and  _196
REMARK   80  A    between atoms: _195  and  _198
REMARK   81  A    between atoms: _198  and  _199
REMARK   82  A    between atoms: _202  and  _204
REMARK   83  A    between atoms: _204  and  _205
REMARK   84  A    between atoms: _204  and  _207
REMARK   85  A    between atoms: _207  and  _208
REMARK   86  A    between atoms: _211  and  _213
REMARK   87  A    between atoms: _213  and  _214
REMARK   88  A    between atoms: _213  and  _216
REMARK   89  A    between atoms: _216  and  _217
REMARK   90  A    between atoms: _217  and  _218
REMARK   91  A    between atoms: _221  and  _223
REMARK   92  A    between atoms: _223  and  _224
REMARK   93  A    between atoms: _223  and  _226
REMARK   94  A    between atoms: _226  and  _227
REMARK   95  A    between atoms: _227  and  _228
REMARK   96  A    between atoms: _228  and  _229
REMARK   97  A    between atoms: _238  and  _240
REMARK   98  A    between atoms: _240  and  _241
REMARK   99  A    between atoms: _240  and  _243
REMARK  100  A    between atoms: _243  and  _244
REMARK  101  A    between atoms: _249  and  _250
REMARK  102  A    between atoms: _252  and  _254
REMARK  103  A    between atoms: _254  and  _255
REMARK  104  A    between atoms: _257  and  _259
REMARK  105  A    between atoms: _259  and  _260
REMARK  106  A    between atoms: _259  and  _262
REMARK  107  A    between atoms: _262  and  _263
REMARK  108  A    between atoms: _263  and  _264
REMARK  109  A    between atoms: _266  and  _268
REMARK  110  A    between atoms: _268  and  _269
REMARK  111  A    between atoms: _268  and  _271
REMARK  112  A    between atoms: _271  and  _272
REMARK  113  A    between atoms: _275  and  _277
REMARK  114  A    between atoms: _277  and  _278
REMARK  115  A    between atoms: _277  and  _280
REMARK  116  A    between atoms: _280  and  _281
REMARK  117  A    between atoms: _281  and  _282
REMARK  118  A    between atoms: _285  and  _287
REMARK  119  A    between atoms: _287  and  _288
REMARK  120  A    between atoms: _287  and  _290
REMARK  121  A    between atoms: _290  and  _291
REMARK  122  A    between atoms: _294  and  _296
REMARK  123  A    between atoms: _296  and  _297
REMARK  124  A    between atoms: _296  and  _299
REMARK  125  A    between atoms: _299  and  _300
REMARK  126  A    between atoms: _305  and  _307
REMARK  127  A    between atoms: _307  and  _308
REMARK  128  A    between atoms: _307  and  _310
REMARK  129  A    between atoms: _310  and  _311
REMARK  130  A    between atoms: _311  and  _312
REMARK  131  A    between atoms: _314  and  _316
REMARK  132  A    between atoms: _316  and  _317
REMARK  133  A    between atoms: _316  and  _319
REMARK  134  A    between atoms: _319  and  _320
REMARK  135  A    between atoms: _325  and  _327
REMARK  136  A    between atoms: _327  and  _328
REMARK  137  A    between atoms: _327  and  _330
REMARK  138  A    between atoms: _330  and  _331
REMARK  139  A    between atoms: _334  and  _336
REMARK  140  A    between atoms: _336  and  _337
REMARK  141  A    between atoms: _336  and  _339
REMARK  142  A    between atoms: _339  and  _340
REMARK  143  A    between atoms: _345  and  _347
REMARK  144  A    between atoms: _347  and  _348
REMARK  145  A    between atoms: _350  and  _352
REMARK  146  A    between atoms: _352  and  _353
REMARK  147  A    between atoms: _356  and  _358
REMARK  148  A    between atoms: _358  and  _359
REMARK  149  A    between atoms: _358  and  _361
REMARK  150  A    between atoms: _364  and  _366
REMARK  151  A    between atoms: _366  and  _367
REMARK  152  A    between atoms: _369  and  _371
REMARK  153  A    between atoms: _371  and  _372
REMARK  154  A    between atoms: _371  and  _374
REMARK  155  A    between atoms: _374  and  _375
REMARK  156  A    between atoms: _380  and  _381
REMARK  157  A    between atoms: _383  and  _385
REMARK  158  A    between atoms: _385  and  _386
REMARK  159  A    between atoms: _385  and  _388
REMARK  160  A    between atoms: _388  and  _389
REMARK  161  A    between atoms: _395  and  _397
REMARK  162  A    between atoms: _397  and  _398
REMARK  163  A    between atoms: _397  and  _400
REMARK  164  A    between atoms: _400  and  _401
REMARK  165  A    between atoms: _404  and  _406
REMARK  166  A    between atoms: _406  and  _407
REMARK  167  A    between atoms: _406  and  _409
REMARK  168  A    between atoms: _409  and  _410
REMARK  169  A    between atoms: _413  and  _415
REMARK  170  A    between atoms: _415  and  _416
REMARK  171  A    between atoms: _418  and  _420
REMARK  172  A    between atoms: _420  and  _421
REMARK  173  A    between atoms: _420  and  _423
REMARK  174  A    between atoms: _423  and  _424
REMARK  175  A    between atoms: _427  and  _429
REMARK  176  A    between atoms: _429  and  _430
REMARK  177  A    between atoms: _429  and  _432
REMARK  178  A    between atoms: _432  and  _433
REMARK  179  A    between atoms: _436  and  _438
REMARK  180  A    between atoms: _438  and  _439
REMARK  181  A    between atoms: _438  and  _441
REMARK  182  A    between atoms: _441  and  _442
REMARK  183  A    between atoms: _447  and  _449
REMARK  184  A    between atoms: _449  and  _450
REMARK  185  A    between atoms: _449  and  _452
REMARK  186  A    between atoms: _452  and  _453
REMARK  187  A    between atoms: _456  and  _458
REMARK  188  A    between atoms: _458  and  _459
REMARK  189  A    between atoms: _458  and  _461
REMARK  190  A    between atoms: _461  and  _462
REMARK  191  A    between atoms: _465  and  _467
REMARK  192  A    between atoms: _467  and  _468
REMARK  193  A    between atoms: _470  and  _472
REMARK  194  A    between atoms: _472  and  _473
REMARK  195  A    between atoms: _472  and  _475
REMARK  196  A    between atoms: _475  and  _476
REMARK  197  A    between atoms: _476  and  _477
REMARK  198  A    between atoms: _477  and  _478
REMARK  199  A    between atoms: _487  and  _489
REMARK  200  A    between atoms: _489  and  _490
REMARK  201  A    between atoms: _492  and  _494
REMARK  202  A    between atoms: _494  and  _495
REMARK  203  A    between atoms: _494  and  _497
REMARK  204  A    between atoms: _497  and  _498
REMARK  205  A    between atoms: _501  and  _503
REMARK  206  A    between atoms: _503  and  _504
REMARK  207  A    between atoms: _503  and  _512
REMARK  208  A    between atoms: _504  and  _505
REMARK  209  A    between atoms: _505  and  _506
REMARK  210  A    between atoms: _506  and  _507
REMARK  211  A    between atoms: _507  and  _508
REMARK  212  A    between atoms: _514  and  _516
REMARK  213  A    between atoms: _516  and  _517
REMARK  214  A    between atoms: _516  and  _519
REMARK  215  A    between atoms: _519  and  _520
REMARK  216  A    between atoms: _525  and  _527
REMARK  217  A    between atoms: _527  and  _528
REMARK  218  A    between atoms: _527  and  _530
REMARK  219  A    between atoms: _530  and  _531
REMARK  220  A    between atoms: _531  and  _532
REMARK  221  A    between atoms: _534  and  _536
REMARK  222  A    between atoms: _536  and  _537
REMARK  223  A    between atoms: _540  and  _542
REMARK  224  A    between atoms: _542  and  _543
REMARK  225  A    between atoms: _542  and  _545
REMARK  226  A    between atoms: _548  and  _550
REMARK  227  A    between atoms: _550  and  _551
REMARK  228  A    between atoms: _550  and  _553
REMARK  229  A    between atoms: _553  and  _554
REMARK  230  A    between atoms: _554  and  _555
REMARK  231  A    between atoms: _560  and  _562
REMARK  232  A    between atoms: _562  and  _563
REMARK  233  A    between atoms: _562  and  _565
REMARK  234  A    between atoms: _565  and  _566
REMARK                            x       y       z     vdW  Elec       q    Type
REMARK                         _______ _______ _______ _____ _____    ______ ____
ROOT
ATOM      1  O   HOH     1      33.449 -53.199  -2.326  0.00  0.00    +0.000 OA
ENDROOT
TORSDOF 0
REMARK  Name = ../refined-set-2016/4fut/4fut_pocket.pdb
REMARK  234 active torsions:
REMARK  status: ('A' for Active; 'I' for Inactive)
REMARK    1  A    between atoms: _1  and  _3
REMARK    2  A    between atoms: _3  and  _4
REMARK    3  A    between atoms: _3  and  _6
REMARK    4  A    between atoms: _6  and  _7
REMARK    5  A    between atoms: _12  and  _13
REMARK    6  A    between atoms: _15  and  _17
REMARK    7  A    between atoms: _17  and  _18
REMARK    8  A    between atoms: _17  and  _20
REMARK    9  A    between atoms: _20  and  _21
REMARK   10  A    between atoms: _24  and  _26
REMARK   11  A    between atoms: _26  and  _27
REMARK   12  A    between atoms: _26  and  _29
REMARK   13  A    between atoms: _29  and  _30
REMARK   14  A    between atoms: _35  and  _36
REMARK   15  A    between atoms: _38  and  _40
REMARK   16  A    between atoms: _40  and  _41
REMARK   17  A    between atoms: _40  and  _43
REMARK   18  A    between atoms: _43  and  _44
REMARK   19  A    between atoms: _47  and  _49
REMARK   20  A    between atoms: _49  and  _50
REMARK   21  A    between atoms: _49  and  _52
REMARK   22  A    between atoms: _52  and  _53
REMARK   23  A    between atoms: _55  and  _57
REMARK   24  A    between atoms: _57  and  _58
REMARK   25  A    between atoms: _60  and  _62
REMARK   26  A    between atoms: _62  and  _63
REMARK   27  A    between atoms: _62  and  _65
REMARK   28  A    between atoms: _65  and  _66
REMARK   29  A    between atoms: _69  and  _71
REMARK   30  A    between atoms: _71  and  _72
REMARK   31  A    between atoms: _71  and  _74
REMARK   32  A    between atoms: _74  and  _75
REMARK   33  A    between atoms: _78  and  _80
REMARK   34  A    between atoms: _80  and  _81
REMARK   35  A    between atoms: _83  and  _85
REMARK   36  A    between atoms: _85  and  _86
REMARK   37  A    between atoms: _85  and  _88
REMARK   38  A    between atoms: _88  and  _89
REMARK   39  A    between atoms: _89  and  _90
REMARK   40  A    between atoms: _90  and  _91
REMARK   41  A    between atoms: _100  and  _102
REMARK   42  A    between atoms: _102  and  _103
REMARK   43  A    between atoms: _102  and  _105
REMARK   44  A    between atoms: _105  and  _106
REMARK   45  A    between atoms: _108  and  _110
REMARK   46  A    between atoms: _110  and  _111
REMARK   47  A    between atoms: _110  and  _119
REMARK   48  A    between atoms: _111  and  _112
REMARK   49  A    between atoms: _112  and  _113
REMARK   50  A    between atoms: _113  and  _114
REMARK   51  A    between atoms: _114  and  _115
REMARK   52  A    between atoms: _121  and  _123
REMARK   53  A    between atoms: _123  and  _124
REMARK   54  A    between atoms: _123  and  _126
REMARK   55  A    between atoms: _126  and  _127
REMARK   56  A    between atoms: _132  and  _134
REMARK   57  A    between atoms: _134  and  _135
REMARK   58  A    between atoms: _134  and  _137
REMARK   59  A    between atoms: _137  and  _138
REMARK   60  A    between atoms: _141  and  _143
REMARK   61  A    between atoms: _143  and  _144
REMARK   62  A    between atoms: _143  and  _146
REMARK   63  A    between atoms: _146  and  _147
REMARK   64  A    between atoms: _153  and  _154
REMARK   65  A    between atoms: _159  and  _161
REMARK   66  A    between atoms: _161  and  _162
REMARK   67  A    between atoms: _161  and  _164
REMARK   68  A    between atoms: _164  and  _165
REMARK   69  A    between atoms: _167  and  _169
REMARK   70  A    between atoms: _169  and  _170
REMARK   71  A    between atoms: _172  and  _174
REMARK   72  A    between atoms: _174  and  _175
REMARK   73  A    between atoms: _174  and  _177
REMARK   74  A    between atoms: _177  and  _178
REMARK   75  A    between atoms: _180  and  _182
REMARK   76  A    between atoms: _182  and  _183
REMARK   77  A    between atoms: _187  and  _188
REMARK   78  A    between atoms: _193  and  _195
REMARK   79  A    between atoms: _195  and  _196
REMARK   80  A    between atoms: _195  and  _198
REMARK   81  A    between atoms: _198  and  _199
REMARK   82  A    between atoms: _202  and  _204
REMARK   83  A    between atoms: _204  and  _205
REMARK   84  A    between atoms: _204  and  _207
REMARK   85  A    between atoms: _207  and  _208
REMARK   86  A    between atoms: _211  and  _213
REMARK   87  A    between atoms: _213  and  _214
REMARK   88  A    between atoms: _213  and  _216
REMARK   89  A    between atoms: _216  and  _217
REMARK   90  A    between atoms: _217  and  _218
REMARK   91  A    between atoms: _221  and  _223
REMARK   92  A    between atoms: _223  and  _224
REMARK   93  A    between atoms: _223  and  _226
REMARK   94  A    between atoms: _226  and  _227
REMARK   95  A    between atoms: _227  and  _228
REMARK   96  A    between atoms: _228  and  _229
REMARK   97  A    between atoms: _238  and  _240
REMARK   98  A    between atoms: _240  and  _241
REMARK   99  A    between atoms: _240  and  _243
REMARK  100  A    between atoms: _243  and  _244
REMARK  101  A    between atoms: _249  and  _250
REMARK  102  A    between atoms: _252  and  _254
REMARK  103  A    between atoms: _254  and  _255
REMARK  104  A    between atoms: _257  and  _259
REMARK  105  A    between atoms: _259  and  _260
REMARK  106  A    between atoms: _259  and  _262
REMARK  107  A    between atoms: _262  and  _263
REMARK  108  A    between atoms: _263  and  _264
REMARK  109  A    between atoms: _266  and  _268
REMARK  110  A    between atoms: _268  and  _269
REMARK  111  A    between atoms: _268  and  _271
REMARK  112  A    between atoms: _271  and  _272
REMARK  113  A    between atoms: _275  and  _277
REMARK  114  A    between atoms: _277  and  _278
REMARK  115  A    between atoms: _277  and  _280
REMARK  116  A    between atoms: _280  and  _281
REMARK  117  A    between atoms: _281  and  _282
REMARK  118  A    between atoms: _285  and  _287
REMARK  119  A    between atoms: _287  and  _288
REMARK  120  A    between atoms: _287  and  _290
REMARK  121  A    between atoms: _290  and  _291
REMARK  122  A    between atoms: _294  and  _296
REMARK  123  A    between atoms: _296  and  _297
REMARK  124  A    between atoms: _296  and  _299
REMARK  125  A    between atoms: _299  and  _300
REMARK  126  A    between atoms: _305  and  _307
REMARK  127  A    between atoms: _307  and  _308
REMARK  128  A    between atoms: _307  and  _310
REMARK  129  A    between atoms: _310  and  _311
REMARK  130  A    between atoms: _311  and  _312
REMARK  131  A    between atoms: _314  and  _316
REMARK  132  A    between atoms: _316  and  _317
REMARK  133  A    between atoms: _316  and  _319
REMARK  134  A    between atoms: _319  and  _320
REMARK  135  A    between atoms: _325  and  _327
REMARK  136  A    between atoms: _327  and  _328
REMARK  137  A    between atoms: _327  and  _330
REMARK  138  A    between atoms: _330  and  _331
REMARK  139  A    between atoms: _334  and  _336
REMARK  140  A    between atoms: _336  and  _337
REMARK  141  A    between atoms: _336  and  _339
REMARK  142  A    between atoms: _339  and  _340
REMARK  143  A    between atoms: _345  and  _347
REMARK  144  A    between atoms: _347  and  _348
REMARK  145  A    between atoms: _350  and  _352
REMARK  146  A    between atoms: _352  and  _353
REMARK  147  A    between atoms: _356  and  _358
REMARK  148  A    between atoms: _358  and  _359
REMARK  149  A    between atoms: _358  and  _361
REMARK  150  A    between atoms: _364  and  _366
REMARK  151  A    between atoms: _366  and  _367
REMARK  152  A    between atoms: _369  and  _371
REMARK  153  A    between atoms: _371  and  _372
REMARK  154  A    between atoms: _371  and  _374
REMARK  155  A    between atoms: _374  and  _375
REMARK  156  A    between atoms: _380  and  _381
REMARK  157  A    between atoms: _383  and  _385
REMARK  158  A    between atoms: _385  and  _386
REMARK  159  A    between atoms: _385  and  _388
REMARK  160  A    between atoms: _388  and  _389
REMARK  161  A    between atoms: _395  and  _397
REMARK  162  A    between atoms: _397  and  _398
REMARK  163  A    between atoms: _397  and  _400
REMARK  164  A    between atoms: _400  and  _401
REMARK  165  A    between atoms: _404  and  _406
REMARK  166  A    between atoms: _406  and  _407
REMARK  167  A    between atoms: _406  and  _409
REMARK  168  A    between atoms: _409  and  _410
REMARK  169  A    between atoms: _413  and  _415
REMARK  170  A    between atoms: _415  and  _416
REMARK  171  A    between atoms: _418  and  _420
REMARK  172  A    between atoms: _420  and  _421
REMARK  173  A    between atoms: _420  and  _423
REMARK  174  A    between atoms: _423  and  _424
REMARK  175  A    between atoms: _427  and  _429
REMARK  176  A    between atoms: _429  and  _430
REMARK  177  A    between atoms: _429  and  _432
REMARK  178  A    between atoms: _432  and  _433
REMARK  179  A    between atoms: _436  and  _438
REMARK  180  A    between atoms: _438  and  _439
REMARK  181  A    between atoms: _438  and  _441
REMARK  182  A    between atoms: _441  and  _442
REMARK  183  A    between atoms: _447  and  _449
REMARK  184  A    between atoms: _449  and  _450
REMARK  185  A    between atoms: _449  and  _452
REMARK  186  A    between atoms: _452  and  _453
REMARK  187  A    between atoms: _456  and  _458
REMARK  188  A    between atoms: _458  and  _459
REMARK  189  A    between atoms: _458  and  _461
REMARK  190  A    between atoms: _461  and  _462
REMARK  191  A    between atoms: _465  and  _467
REMARK  192  A    between atoms: _467  and  _468
REMARK  193  A    between atoms: _470  and  _472
REMARK  194  A    between atoms: _472  and  _473
REMARK  195  A    between atoms: _472  and  _475
REMARK  196  A    between atoms: _475  and  _476
REMARK  197  A    between atoms: _476  and  _477
REMARK  198  A    between atoms: _477  and  _478
REMARK  199  A    between atoms: _487  and  _489
REMARK  200  A    between atoms: _489  and  _490
REMARK  201  A    between atoms: _492  and  _494
REMARK  202  A    between atoms: _494  and  _495
REMARK  203  A    between atoms: _494  and  _497
REMARK  204  A    between atoms: _497  and  _498
REMARK  205  A    between atoms: _501  and  _503
REMARK  206  A    between atoms: _503  and  _504
REMARK  207  A    between atoms: _503  and  _512
REMARK  208  A    between atoms: _504  and  _505
REMARK  209  A    between atoms: _505  and  _506
REMARK  210  A    between atoms: _506  and  _507
REMARK  211  A    between atoms: _507  and  _508
REMARK  212  A    between atoms: _514  and  _516
REMARK  213  A    between atoms: _516  and  _517
REMARK  214  A    between atoms: _516  and  _519
REMARK  215  A    between atoms: _519  and  _520
REMARK  216  A    between atoms: _525  and  _527
REMARK  217  A    between atoms: _527  and  _528
REMARK  218  A    between atoms: _527  and  _530
REMARK  219  A    between atoms: _530  and  _531
REMARK  220  A    between atoms: _531  and  _532
REMARK  221  A    between atoms: _534  and  _536
REMARK  222  A    between atoms: _536  and  _537
REMARK  223  A    between atoms: _540  and  _542
REMARK  224  A    between atoms: _542  and  _543
REMARK  225  A    between atoms: _542  and  _545
REMARK  226  A    between atoms: _548  and  _550
REMARK  227  A    between atoms: _550  and  _551
REMARK  228  A    between atoms: _550  and  _553
REMARK  229  A    between atoms: _553  and  _554
REMARK  230  A    between atoms: _554  and  _555
REMARK  231  A    between atoms: _560  and  _562
REMARK  232  A    between atoms: _562  and  _563
REMARK  233  A    between atoms: _562  and  _565
REMARK  234  A    between atoms: _565  and  _566
REMARK                            x       y       z     vdW  Elec       q    Type
REMARK                         _______ _______ _______ _____ _____    ______ ____
ROOT
ATOM      1  O   HOH     1      44.922 -49.768  -5.202  0.00  0.00    +0.000 OA
ENDROOT
TORSDOF 0
REMARK  Name = ../refined-set-2016/4fut/4fut_pocket.pdb
REMARK  234 active torsions:
REMARK  status: ('A' for Active; 'I' for Inactive)
REMARK    1  A    between atoms: _1  and  _3
REMARK    2  A    between atoms: _3  and  _4
REMARK    3  A    between atoms: _3  and  _6
REMARK    4  A    between atoms: _6  and  _7
REMARK    5  A    between atoms: _12  and  _13
REMARK    6  A    between atoms: _15  and  _17
REMARK    7  A    between atoms: _17  and  _18
REMARK    8  A    between atoms: _17  and  _20
REMARK    9  A    between atoms: _20  and  _21
REMARK   10  A    between atoms: _24  and  _26
REMARK   11  A    between atoms: _26  and  _27
REMARK   12  A    between atoms: _26  and  _29
REMARK   13  A    between atoms: _29  and  _30
REMARK   14  A    between atoms: _35  and  _36
REMARK   15  A    between atoms: _38  and  _40
REMARK   16  A    between atoms: _40  and  _41
REMARK   17  A    between atoms: _40  and  _43
REMARK   18  A    between atoms: _43  and  _44
REMARK   19  A    between atoms: _47  and  _49
REMARK   20  A    between atoms: _49  and  _50
REMARK   21  A    between atoms: _49  and  _52
REMARK   22  A    between atoms: _52  and  _53
REMARK   23  A    between atoms: _55  and  _57
REMARK   24  A    between atoms: _57  and  _58
REMARK   25  A    between atoms: _60  and  _62
REMARK   26  A    between atoms: _62  and  _63
REMARK   27  A    between atoms: _62  and  _65
REMARK   28  A    between atoms: _65  and  _66
REMARK   29  A    between atoms: _69  and  _71
REMARK   30  A    between atoms: _71  and  _72
REMARK   31  A    between atoms: _71  and  _74
REMARK   32  A    between atoms: _74  and  _75
REMARK   33  A    between atoms: _78  and  _80
REMARK   34  A    between atoms: _80  and  _81
REMARK   35  A    between atoms: _83  and  _85
REMARK   36  A    between atoms: _85  and  _86
REMARK   37  A    between atoms: _85  and  _88
REMARK   38  A    between atoms: _88  and  _89
REMARK   39  A    between atoms: _89  and  _90
REMARK   40  A    between atoms: _90  and  _91
REMARK   41  A    between atoms: _100  and  _102
REMARK   42  A    between atoms: _102  and  _103
REMARK   43  A    between atoms: _102  and  _105
REMARK   44  A    between atoms: _105  and  _106
REMARK   45  A    between atoms: _108  and  _110
REMARK   46  A    between atoms: _110  and  _111
REMARK   47  A    between atoms: _110  and  _119
REMARK   48  A    between atoms: _111  and  _112
REMARK   49  A    between atoms: _112  and  _113
REMARK   50  A    between atoms: _113  and  _114
REMARK   51  A    between atoms: _114  and  _115
REMARK   52  A    between atoms: _121  and  _123
REMARK   53  A    between atoms: _123  and  _124
REMARK   54  A    between atoms: _123  and  _126
REMARK   55  A    between atoms: _126  and  _127
REMARK   56  A    between atoms: _132  and  _134
REMARK   57  A    between atoms: _134  and  _135
REMARK   58  A    between atoms: _134  and  _137
REMARK   59  A    between atoms: _137  and  _138
REMARK   60  A    between atoms: _141  and  _143
REMARK   61  A    between atoms: _143  and  _144
REMARK   62  A    between atoms: _143  and  _146
REMARK   63  A    between atoms: _146  and  _147
REMARK   64  A    between atoms: _153  and  _154
REMARK   65  A    between atoms: _159  and  _161
REMARK   66  A    between atoms: _161  and  _162
REMARK   67  A    between atoms: _161  and  _164
REMARK   68  A    between atoms: _164  and  _165
REMARK   69  A    between atoms: _167  and  _169
REMARK   70  A    between atoms: _169  and  _170
REMARK   71  A    between atoms: _172  and  _174
REMARK   72  A    between atoms: _174  and  _175
REMARK   73  A    between atoms: _174  and  _177
REMARK   74  A    between atoms: _177  and  _178
REMARK   75  A    between atoms: _180  and  _182
REMARK   76  A    between atoms: _182  and  _183
REMARK   77  A    between atoms: _187  and  _188
REMARK   78  A    between atoms: _193  and  _195
REMARK   79  A    between atoms: _195  and  _196
REMARK   80  A    between atoms: _195  and  _198
REMARK   81  A    between atoms: _198  and  _199
REMARK   82  A    between atoms: _202  and  _204
REMARK   83  A    between atoms: _204  and  _205
REMARK   84  A    between atoms: _204  and  _207
REMARK   85  A    between atoms: _207  and  _208
REMARK   86  A    between atoms: _211  and  _213
REMARK   87  A    between atoms: _213  and  _214
REMARK   88  A    between atoms: _213  and  _216
REMARK   89  A    between atoms: _216  and  _217
REMARK   90  A    between atoms: _217  and  _218
REMARK   91  A    between atoms: _221  and  _223
REMARK   92  A    between atoms: _223  and  _224
REMARK   93  A    between atoms: _223  and  _226
REMARK   94  A    between atoms: _226  and  _227
REMARK   95  A    between atoms: _227  and  _228
REMARK   96  A    between atoms: _228  and  _229
REMARK   97  A    between atoms: _238  and  _240
REMARK   98  A    between atoms: _240  and  _241
REMARK   99  A    between atoms: _240  and  _243
REMARK  100  A    between atoms: _243  and  _244
REMARK  101  A    between atoms: _249  and  _250
REMARK  102  A    between atoms: _252  and  _254
REMARK  103  A    between atoms: _254  and  _255
REMARK  104  A    between atoms: _257  and  _259
REMARK  105  A    between atoms: _259  and  _260
REMARK  106  A    between atoms: _259  and  _262
REMARK  107  A    between atoms: _262  and  _263
REMARK  108  A    between atoms: _263  and  _264
REMARK  109  A    between atoms: _266  and  _268
REMARK  110  A    between atoms: _268  and  _269
REMARK  111  A    between atoms: _268  and  _271
REMARK  112  A    between atoms: _271  and  _272
REMARK  113  A    between atoms: _275  and  _277
REMARK  114  A    between atoms: _277  and  _278
REMARK  115  A    between atoms: _277  and  _280
REMARK  116  A    between atoms: _280  and  _281
REMARK  117  A    between atoms: _281  and  _282
REMARK  118  A    between atoms: _285  and  _287
REMARK  119  A    between atoms: _287  and  _288
REMARK  120  A    between atoms: _287  and  _290
REMARK  121  A    between atoms: _290  and  _291
REMARK  122  A    between atoms: _294  and  _296
REMARK  123  A    between atoms: _296  and  _297
REMARK  124  A    between atoms: _296  and  _299
REMARK  125  A    between atoms: _299  and  _300
REMARK  126  A    between atoms: _305  and  _307
REMARK  127  A    between atoms: _307  and  _308
REMARK  128  A    between atoms: _307  and  _310
REMARK  129  A    between atoms: _310  and  _311
REMARK  130  A    between atoms: _311  and  _312
REMARK  131  A    between atoms: _314  and  _316
REMARK  132  A    between atoms: _316  and  _317
REMARK  133  A    between atoms: _316  and  _319
REMARK  134  A    between atoms: _319  and  _320
REMARK  135  A    between atoms: _325  and  _327
REMARK  136  A    between atoms: _327  and  _328
REMARK  137  A    between atoms: _327  and  _330
REMARK  138  A    between atoms: _330  and  _331
REMARK  139  A    between atoms: _334  and  _336
REMARK  140  A    between atoms: _336  and  _337
REMARK  141  A    between atoms: _336  and  _339
REMARK  142  A    between atoms: _339  and  _340
REMARK  143  A    between atoms: _345  and  _347
REMARK  144  A    between atoms: _347  and  _348
REMARK  145  A    between atoms: _350  and  _352
REMARK  146  A    between atoms: _352  and  _353
REMARK  147  A    between atoms: _356  and  _358
REMARK  148  A    between atoms: _358  and  _359
REMARK  149  A    between atoms: _358  and  _361
REMARK  150  A    between atoms: _364  and  _366
REMARK  151  A    between atoms: _366  and  _367
REMARK  152  A    between atoms: _369  and  _371
REMARK  153  A    between atoms: _371  and  _372
REMARK  154  A    between atoms: _371  and  _374
REMARK  155  A    between atoms: _374  and  _375
REMARK  156  A    between atoms: _380  and  _381
REMARK  157  A    between atoms: _383  and  _385
REMARK  158  A    between atoms: _385  and  _386
REMARK  159  A    between atoms: _385  and  _388
REMARK  160  A    between atoms: _388  and  _389
REMARK  161  A    between atoms: _395  and  _397
REMARK  162  A    between atoms: _397  and  _398
REMARK  163  A    between atoms: _397  and  _400
REMARK  164  A    between atoms: _400  and  _401
REMARK  165  A    between atoms: _404  and  _406
REMARK  166  A    between atoms: _406  and  _407
REMARK  167  A    between atoms: _406  and  _409
REMARK  168  A    between atoms: _409  and  _410
REMARK  169  A    between atoms: _413  and  _415
REMARK  170  A    between atoms: _415  and  _416
REMARK  171  A    between atoms: _418  and  _420
REMARK  172  A    between atoms: _420  and  _421
REMARK  173  A    between atoms: _420  and  _423
REMARK  174  A    between atoms: _423  and  _424
REMARK  175  A    between atoms: _427  and  _429
REMARK  176  A    between atoms: _429  and  _430
REMARK  177  A    between atoms: _429  and  _432
REMARK  178  A    between atoms: _432  and  _433
REMARK  179  A    between atoms: _436  and  _438
REMARK  180  A    between atoms: _438  and  _439
REMARK  181  A    between atoms: _438  and  _441
REMARK  182  A    between atoms: _441  and  _442
REMARK  183  A    between atoms: _447  and  _449
REMARK  184  A    between atoms: _449  and  _450
REMARK  185  A    between atoms: _449  and  _452
REMARK  186  A    between atoms: _452  and  _453
REMARK  187  A    between atoms: _456  and  _458
REMARK  188  A    between atoms: _458  and  _459
REMARK  189  A    between atoms: _458  and  _461
REMARK  190  A    between atoms: _461  and  _462
REMARK  191  A    between atoms: _465  and  _467
REMARK  192  A    between atoms: _467  and  _468
REMARK  193  A    between atoms: _470  and  _472
REMARK  194  A    between atoms: _472  and  _473
REMARK  195  A    between atoms: _472  and  _475
REMARK  196  A    between atoms: _475  and  _476
REMARK  197  A    between atoms: _476  and  _477
REMARK  198  A    between atoms: _477  and  _478
REMARK  199  A    between atoms: _487  and  _489
REMARK  200  A    between atoms: _489  and  _490
REMARK  201  A    between atoms: _492  and  _494
REMARK  202  A    between atoms: _494  and  _495
REMARK  203  A    between atoms: _494  and  _497
REMARK  204  A    between atoms: _497  and  _498
REMARK  205  A    between atoms: _501  and  _503
REMARK  206  A    between atoms: _503  and  _504
REMARK  207  A    between atoms: _503  and  _512
REMARK  208  A    between atoms: _504  and  _505
REMARK  209  A    between atoms: _505  and  _506
REMARK  210  A    between atoms: _506  and  _507
REMARK  211  A    between atoms: _507  and  _508
REMARK  212  A    between atoms: _514  and  _516
REMARK  213  A    between atoms: _516  and  _517
REMARK  214  A    between atoms: _516  and  _519
REMARK  215  A    between atoms: _519  and  _520
REMARK  216  A    between atoms: _525  and  _527
REMARK  217  A    between atoms: _527  and  _528
REMARK  218  A    between atoms: _527  and  _530
REMARK  219  A    between atoms: _530  and  _531
REMARK  220  A    between atoms: _531  and  _532
REMARK  221  A    between atoms: _534  and  _536
REMARK  222  A    between atoms: _536  and  _537
REMARK  223  A    between atoms: _540  and  _542
REMARK  224  A    between atoms: _542  and  _543
REMARK  225  A    between atoms: _542  and  _545
REMARK  226  A    between atoms: _548  and  _550
REMARK  227  A    between atoms: _550  and  _551
REMARK  228  A    between atoms: _550  and  _553
REMARK  229  A    between atoms: _553  and  _554
REMARK  230  A    between atoms: _554  and  _555
REMARK  231  A    between atoms: _560  and  _562
REMARK  232  A    between atoms: _562  and  _563
REMARK  233  A    between atoms: _562  and  _565
REMARK  234  A    between atoms: _565  and  _566
REMARK                            x       y       z     vdW  Elec       q    Type
REMARK                         _______ _______ _______ _____ _____    ______ ____
ROOT
ATOM      1  O   HOH     1      41.369 -50.948 -13.499  0.00  0.00    +0.000 OA
ENDROOT
TORSDOF 0
REMARK  Name = ../refined-set-2016/4fut/4fut_pocket.pdb
REMARK  234 active torsions:
REMARK  status: ('A' for Active; 'I' for Inactive)
REMARK    1  A    between atoms: _1  and  _3
REMARK    2  A    between atoms: _3  and  _4
REMARK    3  A    between atoms: _3  and  _6
REMARK    4  A    between atoms: _6  and  _7
REMARK    5  A    between atoms: _12  and  _13
REMARK    6  A    between atoms: _15  and  _17
REMARK    7  A    between atoms: _17  and  _18
REMARK    8  A    between atoms: _17  and  _20
REMARK    9  A    between atoms: _20  and  _21
REMARK   10  A    between atoms: _24  and  _26
REMARK   11  A    between atoms: _26  and  _27
REMARK   12  A    between atoms: _26  and  _29
REMARK   13  A    between atoms: _29  and  _30
REMARK   14  A    between atoms: _35  and  _36
REMARK   15  A    between atoms: _38  and  _40
REMARK   16  A    between atoms: _40  and  _41
REMARK   17  A    between atoms: _40  and  _43
REMARK   18  A    between atoms: _43  and  _44
REMARK   19  A    between atoms: _47  and  _49
REMARK   20  A    between atoms: _49  and  _50
REMARK   21  A    between atoms: _49  and  _52
REMARK   22  A    between atoms: _52  and  _53
REMARK   23  A    between atoms: _55  and  _57
REMARK   24  A    between atoms: _57  and  _58
REMARK   25  A    between atoms: _60  and  _62
REMARK   26  A    between atoms: _62  and  _63
REMARK   27  A    between atoms: _62  and  _65
REMARK   28  A    between atoms: _65  and  _66
REMARK   29  A    between atoms: _69  and  _71
REMARK   30  A    between atoms: _71  and  _72
REMARK   31  A    between atoms: _71  and  _74
REMARK   32  A    between atoms: _74  and  _75
REMARK   33  A    between atoms: _78  and  _80
REMARK   34  A    between atoms: _80  and  _81
REMARK   35  A    between atoms: _83  and  _85
REMARK   36  A    between atoms: _85  and  _86
REMARK   37  A    between atoms: _85  and  _88
REMARK   38  A    between atoms: _88  and  _89
REMARK   39  A    between atoms: _89  and  _90
REMARK   40  A    between atoms: _90  and  _91
REMARK   41  A    between atoms: _100  and  _102
REMARK   42  A    between atoms: _102  and  _103
REMARK   43  A    between atoms: _102  and  _105
REMARK   44  A    between atoms: _105  and  _106
REMARK   45  A    between atoms: _108  and  _110
REMARK   46  A    between atoms: _110  and  _111
REMARK   47  A    between atoms: _110  and  _119
REMARK   48  A    between atoms: _111  and  _112
REMARK   49  A    between atoms: _112  and  _113
REMARK   50  A    between atoms: _113  and  _114
REMARK   51  A    between atoms: _114  and  _115
REMARK   52  A    between atoms: _121  and  _123
REMARK   53  A    between atoms: _123  and  _124
REMARK   54  A    between atoms: _123  and  _126
REMARK   55  A    between atoms: _126  and  _127
REMARK   56  A    between atoms: _132  and  _134
REMARK   57  A    between atoms: _134  and  _135
REMARK   58  A    between atoms: _134  and  _137
REMARK   59  A    between atoms: _137  and  _138
REMARK   60  A    between atoms: _141  and  _143
REMARK   61  A    between atoms: _143  and  _144
REMARK   62  A    between atoms: _143  and  _146
REMARK   63  A    between atoms: _146  and  _147
REMARK   64  A    between atoms: _153  and  _154
REMARK   65  A    between atoms: _159  and  _161
REMARK   66  A    between atoms: _161  and  _162
REMARK   67  A    between atoms: _161  and  _164
REMARK   68  A    between atoms: _164  and  _165
REMARK   69  A    between atoms: _167  and  _169
REMARK   70  A    between atoms: _169  and  _170
REMARK   71  A    between atoms: _172  and  _174
REMARK   72  A    between atoms: _174  and  _175
REMARK   73  A    between atoms: _174  and  _177
REMARK   74  A    between atoms: _177  and  _178
REMARK   75  A    between atoms: _180  and  _182
REMARK   76  A    between atoms: _182  and  _183
REMARK   77  A    between atoms: _187  and  _188
REMARK   78  A    between atoms: _193  and  _195
REMARK   79  A    between atoms: _195  and  _196
REMARK   80  A    between atoms: _195  and  _198
REMARK   81  A    between atoms: _198  and  _199
REMARK   82  A    between atoms: _202  and  _204
REMARK   83  A    between atoms: _204  and  _205
REMARK   84  A    between atoms: _204  and  _207
REMARK   85  A    between atoms: _207  and  _208
REMARK   86  A    between atoms: _211  and  _213
REMARK   87  A    between atoms: _213  and  _214
REMARK   88  A    between atoms: _213  and  _216
REMARK   89  A    between atoms: _216  and  _217
REMARK   90  A    between atoms: _217  and  _218
REMARK   91  A    between atoms: _221  and  _223
REMARK   92  A    between atoms: _223  and  _224
REMARK   93  A    between atoms: _223  and  _226
REMARK   94  A    between atoms: _226  and  _227
REMARK   95  A    between atoms: _227  and  _228
REMARK   96  A    between atoms: _228  and  _229
REMARK   97  A    between atoms: _238  and  _240
REMARK   98  A    between atoms: _240  and  _241
REMARK   99  A    between atoms: _240  and  _243
REMARK  100  A    between atoms: _243  and  _244
REMARK  101  A    between atoms: _249  and  _250
REMARK  102  A    between atoms: _252  and  _254
REMARK  103  A    between atoms: _254  and  _255
REMARK  104  A    between atoms: _257  and  _259
REMARK  105  A    between atoms: _259  and  _260
REMARK  106  A    between atoms: _259  and  _262
REMARK  107  A    between atoms: _262  and  _263
REMARK  108  A    between atoms: _263  and  _264
REMARK  109  A    between atoms: _266  and  _268
REMARK  110  A    between atoms: _268  and  _269
REMARK  111  A    between atoms: _268  and  _271
REMARK  112  A    between atoms: _271  and  _272
REMARK  113  A    between atoms: _275  and  _277
REMARK  114  A    between atoms: _277  and  _278
REMARK  115  A    between atoms: _277  and  _280
REMARK  116  A    between atoms: _280  and  _281
REMARK  117  A    between atoms: _281  and  _282
REMARK  118  A    between atoms: _285  and  _287
REMARK  119  A    between atoms: _287  and  _288
REMARK  120  A    between atoms: _287  and  _290
REMARK  121  A    between atoms: _290  and  _291
REMARK  122  A    between atoms: _294  and  _296
REMARK  123  A    between atoms: _296  and  _297
REMARK  124  A    between atoms: _296  and  _299
REMARK  125  A    between atoms: _299  and  _300
REMARK  126  A    between atoms: _305  and  _307
REMARK  127  A    between atoms: _307  and  _308
REMARK  128  A    between atoms: _307  and  _310
REMARK  129  A    between atoms: _310  and  _311
REMARK  130  A    between atoms: _311  and  _312
REMARK  131  A    between atoms: _314  and  _316
REMARK  132  A    between atoms: _316  and  _317
REMARK  133  A    between atoms: _316  and  _319
REMARK  134  A    between atoms: _319  and  _320
REMARK  135  A    between atoms: _325  and  _327
REMARK  136  A    between atoms: _327  and  _328
REMARK  137  A    between atoms: _327  and  _330
REMARK  138  A    between atoms: _330  and  _331
REMARK  139  A    between atoms: _334  and  _336
REMARK  140  A    between atoms: _336  and  _337
REMARK  141  A    between atoms: _336  and  _339
REMARK  142  A    between atoms: _339  and  _340
REMARK  143  A    between atoms: _345  and  _347
REMARK  144  A    between atoms: _347  and  _348
REMARK  145  A    between atoms: _350  and  _352
REMARK  146  A    between atoms: _352  and  _353
REMARK  147  A    between atoms: _356  and  _358
REMARK  148  A    between atoms: _358  and  _359
REMARK  149  A    between atoms: _358  and  _361
REMARK  150  A    between atoms: _364  and  _366
REMARK  151  A    between atoms: _366  and  _367
REMARK  152  A    between atoms: _369  and  _371
REMARK  153  A    between atoms: _371  and  _372
REMARK  154  A    between atoms: _371  and  _374
REMARK  155  A    between atoms: _374  and  _375
REMARK  156  A    between atoms: _380  and  _381
REMARK  157  A    between atoms: _383  and  _385
REMARK  158  A    between atoms: _385  and  _386
REMARK  159  A    between atoms: _385  and  _388
REMARK  160  A    between atoms: _388  and  _389
REMARK  161  A    between atoms: _395  and  _397
REMARK  162  A    between atoms: _397  and  _398
REMARK  163  A    between atoms: _397  and  _400
REMARK  164  A    between atoms: _400  and  _401
REMARK  165  A    between atoms: _404  and  _406
REMARK  166  A    between atoms: _406  and  _407
REMARK  167  A    between atoms: _406  and  _409
REMARK  168  A    between atoms: _409  and  _410
REMARK  169  A    between atoms: _413  and  _415
REMARK  170  A    between atoms: _415  and  _416
REMARK  171  A    between atoms: _418  and  _420
REMARK  172  A    between atoms: _420  and  _421
REMARK  173  A    between atoms: _420  and  _423
REMARK  174  A    between atoms: _423  and  _424
REMARK  175  A    between atoms: _427  and  _429
REMARK  176  A    between atoms: _429  and  _430
REMARK  177  A    between atoms: _429  and  _432
REMARK  178  A    between atoms: _432  and  _433
REMARK  179  A    between atoms: _436  and  _438
REMARK  180  A    between atoms: _438  and  _439
REMARK  181  A    between atoms: _438  and  _441
REMARK  182  A    between atoms: _441  and  _442
REMARK  183  A    between atoms: _447  and  _449
REMARK  184  A    between atoms: _449  and  _450
REMARK  185  A    between atoms: _449  and  _452
REMARK  186  A    between atoms: _452  and  _453
REMARK  187  A    between atoms: _456  and  _458
REMARK  188  A    between atoms: _458  and  _459
REMARK  189  A    between atoms: _458  and  _461
REMARK  190  A    between atoms: _461  and  _462
REMARK  191  A    between atoms: _465  and  _467
REMARK  192  A    between atoms: _467  and  _468
REMARK  193  A    between atoms: _470  and  _472
REMARK  194  A    between atoms: _472  and  _473
REMARK  195  A    between atoms: _472  and  _475
REMARK  196  A    between atoms: _475  and  _476
REMARK  197  A    between atoms: _476  and  _477
REMARK  198  A    between atoms: _477  and  _478
REMARK  199  A    between atoms: _487  and  _489
REMARK  200  A    between atoms: _489  and  _490
REMARK  201  A    between atoms: _492  and  _494
REMARK  202  A    between atoms: _494  and  _495
REMARK  203  A    between atoms: _494  and  _497
REMARK  204  A    between atoms: _497  and  _498
REMARK  205  A    between atoms: _501  and  _503
REMARK  206  A    between atoms: _503  and  _504
REMARK  207  A    between atoms: _503  and  _512
REMARK  208  A    between atoms: _504  and  _505
REMARK  209  A    between atoms: _505  and  _506
REMARK  210  A    between atoms: _506  and  _507
REMARK  211  A    between atoms: _507  and  _508
REMARK  212  A    between atoms: _514  and  _516
REMARK  213  A    between atoms: _516  and  _517
REMARK  214  A    between atoms: _516  and  _519
REMARK  215  A    between atoms: _519  and  _520
REMARK  216  A    between atoms: _525  and  _527
REMARK  217  A    between atoms: _527  and  _528
REMARK  218  A    between atoms: _527  and  _530
REMARK  219  A    between atoms: _530  and  _531
REMARK  220  A    between atoms: _531  and  _532
REMARK  221  A    between atoms: _534  and  _536
REMARK  222  A    between atoms: _536  and  _537
REMARK  223  A    between atoms: _540  and  _542
REMARK  224  A    between atoms: _542  and  _543
REMARK  225  A    between atoms: _542  and  _545
REMARK  226  A    between atoms: _548  and  _550
REMARK  227  A    between atoms: _550  and  _551
REMARK  228  A    between atoms: _550  and  _553
REMARK  229  A    between atoms: _553  and  _554
REMARK  230  A    between atoms: _554  and  _555
REMARK  231  A    between atoms: _560  and  _562
REMARK  232  A    between atoms: _562  and  _563
REMARK  233  A    between atoms: _562  and  _565
REMARK  234  A    between atoms: _565  and  _566
REMARK                            x       y       z     vdW  Elec       q    Type
REMARK                         _______ _______ _______ _____ _____    ______ ____
ROOT
ATOM      1  O   HOH     1      36.064 -59.177  -3.027  0.00  0.00    +0.000 OA
ENDROOT
TORSDOF 0
REMARK  Name = ../refined-set-2016/4fut/4fut_pocket.pdb
REMARK  234 active torsions:
REMARK  status: ('A' for Active; 'I' for Inactive)
REMARK    1  A    between atoms: _1  and  _3
REMARK    2  A    between atoms: _3  and  _4
REMARK    3  A    between atoms: _3  and  _6
REMARK    4  A    between atoms: _6  and  _7
REMARK    5  A    between atoms: _12  and  _13
REMARK    6  A    between atoms: _15  and  _17
REMARK    7  A    between atoms: _17  and  _18
REMARK    8  A    between atoms: _17  and  _20
REMARK    9  A    between atoms: _20  and  _21
REMARK   10  A    between atoms: _24  and  _26
REMARK   11  A    between atoms: _26  and  _27
REMARK   12  A    between atoms: _26  and  _29
REMARK   13  A    between atoms: _29  and  _30
REMARK   14  A    between atoms: _35  and  _36
REMARK   15  A    between atoms: _38  and  _40
REMARK   16  A    between atoms: _40  and  _41
REMARK   17  A    between atoms: _40  and  _43
REMARK   18  A    between atoms: _43  and  _44
REMARK   19  A    between atoms: _47  and  _49
REMARK   20  A    between atoms: _49  and  _50
REMARK   21  A    between atoms: _49  and  _52
REMARK   22  A    between atoms: _52  and  _53
REMARK   23  A    between atoms: _55  and  _57
REMARK   24  A    between atoms: _57  and  _58
REMARK   25  A    between atoms: _60  and  _62
REMARK   26  A    between atoms: _62  and  _63
REMARK   27  A    between atoms: _62  and  _65
REMARK   28  A    between atoms: _65  and  _66
REMARK   29  A    between atoms: _69  and  _71
REMARK   30  A    between atoms: _71  and  _72
REMARK   31  A    between atoms: _71  and  _74
REMARK   32  A    between atoms: _74  and  _75
REMARK   33  A    between atoms: _78  and  _80
REMARK   34  A    between atoms: _80  and  _81
REMARK   35  A    between atoms: _83  and  _85
REMARK   36  A    between atoms: _85  and  _86
REMARK   37  A    between atoms: _85  and  _88
REMARK   38  A    between atoms: _88  and  _89
REMARK   39  A    between atoms: _89  and  _90
REMARK   40  A    between atoms: _90  and  _91
REMARK   41  A    between atoms: _100  and  _102
REMARK   42  A    between atoms: _102  and  _103
REMARK   43  A    between atoms: _102  and  _105
REMARK   44  A    between atoms: _105  and  _106
REMARK   45  A    between atoms: _108  and  _110
REMARK   46  A    between atoms: _110  and  _111
REMARK   47  A    between atoms: _110  and  _119
REMARK   48  A    between atoms: _111  and  _112
REMARK   49  A    between atoms: _112  and  _113
REMARK   50  A    between atoms: _113  and  _114
REMARK   51  A    between atoms: _114  and  _115
REMARK   52  A    between atoms: _121  and  _123
REMARK   53  A    between atoms: _123  and  _124
REMARK   54  A    between atoms: _123  and  _126
REMARK   55  A    between atoms: _126  and  _127
REMARK   56  A    between atoms: _132  and  _134
REMARK   57  A    between atoms: _134  and  _135
REMARK   58  A    between atoms: _134  and  _137
REMARK   59  A    between atoms: _137  and  _138
REMARK   60  A    between atoms: _141  and  _143
REMARK   61  A    between atoms: _143  and  _144
REMARK   62  A    between atoms: _143  and  _146
REMARK   63  A    between atoms: _146  and  _147
REMARK   64  A    between atoms: _153  and  _154
REMARK   65  A    between atoms: _159  and  _161
REMARK   66  A    between atoms: _161  and  _162
REMARK   67  A    between atoms: _161  and  _164
REMARK   68  A    between atoms: _164  and  _165
REMARK   69  A    between atoms: _167  and  _169
REMARK   70  A    between atoms: _169  and  _170
REMARK   71  A    between atoms: _172  and  _174
REMARK   72  A    between atoms: _174  and  _175
REMARK   73  A    between atoms: _174  and  _177
REMARK   74  A    between atoms: _177  and  _178
REMARK   75  A    between atoms: _180  and  _182
REMARK   76  A    between atoms: _182  and  _183
REMARK   77  A    between atoms: _187  and  _188
REMARK   78  A    between atoms: _193  and  _195
REMARK   79  A    between atoms: _195  and  _196
REMARK   80  A    between atoms: _195  and  _198
REMARK   81  A    between atoms: _198  and  _199
REMARK   82  A    between atoms: _202  and  _204
REMARK   83  A    between atoms: _204  and  _205
REMARK   84  A    between atoms: _204  and  _207
REMARK   85  A    between atoms: _207  and  _208
REMARK   86  A    between atoms: _211  and  _213
REMARK   87  A    between atoms: _213  and  _214
REMARK   88  A    between atoms: _213  and  _216
REMARK   89  A    between atoms: _216  and  _217
REMARK   90  A    between atoms: _217  and  _218
REMARK   91  A    between atoms: _221  and  _223
REMARK   92  A    between atoms: _223  and  _224
REMARK   93  A    between atoms: _223  and  _226
REMARK   94  A    between atoms: _226  and  _227
REMARK   95  A    between atoms: _227  and  _228
REMARK   96  A    between atoms: _228  and  _229
REMARK   97  A    between atoms: _238  and  _240
REMARK   98  A    between atoms: _240  and  _241
REMARK   99  A    between atoms: _240  and  _243
REMARK  100  A    between atoms: _243  and  _244
REMARK  101  A    between atoms: _249  and  _250
REMARK  102  A    between atoms: _252  and  _254
REMARK  103  A    between atoms: _254  and  _255
REMARK  104  A    between atoms: _257  and  _259
REMARK  105  A    between atoms: _259  and  _260
REMARK  106  A    between atoms: _259  and  _262
REMARK  107  A    between atoms: _262  and  _263
REMARK  108  A    between atoms: _263  and  _264
REMARK  109  A    between atoms: _266  and  _268
REMARK  110  A    between atoms: _268  and  _269
REMARK  111  A    between atoms: _268  and  _271
REMARK  112  A    between atoms: _271  and  _272
REMARK  113  A    between atoms: _275  and  _277
REMARK  114  A    between atoms: _277  and  _278
REMARK  115  A    between atoms: _277  and  _280
REMARK  116  A    between atoms: _280  and  _281
REMARK  117  A    between atoms: _281  and  _282
REMARK  118  A    between atoms: _285  and  _287
REMARK  119  A    between atoms: _287  and  _288
REMARK  120  A    between atoms: _287  and  _290
REMARK  121  A    between atoms: _290  and  _291
REMARK  122  A    between atoms: _294  and  _296
REMARK  123  A    between atoms: _296  and  _297
REMARK  124  A    between atoms: _296  and  _299
REMARK  125  A    between atoms: _299  and  _300
REMARK  126  A    between atoms: _305  and  _307
REMARK  127  A    between atoms: _307  and  _308
REMARK  128  A    between atoms: _307  and  _310
REMARK  129  A    between atoms: _310  and  _311
REMARK  130  A    between atoms: _311  and  _312
REMARK  131  A    between atoms: _314  and  _316
REMARK  132  A    between atoms: _316  and  _317
REMARK  133  A    between atoms: _316  and  _319
REMARK  134  A    between atoms: _319  and  _320
REMARK  135  A    between atoms: _325  and  _327
REMARK  136  A    between atoms: _327  and  _328
REMARK  137  A    between atoms: _327  and  _330
REMARK  138  A    between atoms: _330  and  _331
REMARK  139  A    between atoms: _334  and  _336
REMARK  140  A    between atoms: _336  and  _337
REMARK  141  A    between atoms: _336  and  _339
REMARK  142  A    between atoms: _339  and  _340
REMARK  143  A    between atoms: _345  and  _347
REMARK  144  A    between atoms: _347  and  _348
REMARK  145  A    between atoms: _350  and  _352
REMARK  146  A    between atoms: _352  and  _353
REMARK  147  A    between atoms: _356  and  _358
REMARK  148  A    between atoms: _358  and  _359
REMARK  149  A    between atoms: _358  and  _361
REMARK  150  A    between atoms: _364  and  _366
REMARK  151  A    between atoms: _366  and  _367
REMARK  152  A    between atoms: _369  and  _371
REMARK  153  A    between atoms: _371  and  _372
REMARK  154  A    between atoms: _371  and  _374
REMARK  155  A    between atoms: _374  and  _375
REMARK  156  A    between atoms: _380  and  _381
REMARK  157  A    between atoms: _383  and  _385
REMARK  158  A    between atoms: _385  and  _386
REMARK  159  A    between atoms: _385  and  _388
REMARK  160  A    between atoms: _388  and  _389
REMARK  161  A    between atoms: _395  and  _397
REMARK  162  A    between atoms: _397  and  _398
REMARK  163  A    between atoms: _397  and  _400
REMARK  164  A    between atoms: _400  and  _401
REMARK  165  A    between atoms: _404  and  _406
REMARK  166  A    between atoms: _406  and  _407
REMARK  167  A    between atoms: _406  and  _409
REMARK  168  A    between atoms: _409  and  _410
REMARK  169  A    between atoms: _413  and  _415
REMARK  170  A    between atoms: _415  and  _416
REMARK  171  A    between atoms: _418  and  _420
REMARK  172  A    between atoms: _420  and  _421
REMARK  173  A    between atoms: _420  and  _423
REMARK  174  A    between atoms: _423  and  _424
REMARK  175  A    between atoms: _427  and  _429
REMARK  176  A    between atoms: _429  and  _430
REMARK  177  A    between atoms: _429  and  _432
REMARK  178  A    between atoms: _432  and  _433
REMARK  179  A    between atoms: _436  and  _438
REMARK  180  A    between atoms: _438  and  _439
REMARK  181  A    between atoms: _438  and  _441
REMARK  182  A    between atoms: _441  and  _442
REMARK  183  A    between atoms: _447  and  _449
REMARK  184  A    between atoms: _449  and  _450
REMARK  185  A    between atoms: _449  and  _452
REMARK  186  A    between atoms: _452  and  _453
REMARK  187  A    between atoms: _456  and  _458
REMARK  188  A    between atoms: _458  and  _459
REMARK  189  A    between atoms: _458  and  _461
REMARK  190  A    between atoms: _461  and  _462
REMARK  191  A    between atoms: _465  and  _467
REMARK  192  A    between atoms: _467  and  _468
REMARK  193  A    between atoms: _470  and  _472
REMARK  194  A    between atoms: _472  and  _473
REMARK  195  A    between atoms: _472  and  _475
REMARK  196  A    between atoms: _475  and  _476
REMARK  197  A    between atoms: _476  and  _477
REMARK  198  A    between atoms: _477  and  _478
REMARK  199  A    between atoms: _487  and  _489
REMARK  200  A    between atoms: _489  and  _490
REMARK  201  A    between atoms: _492  and  _494
REMARK  202  A    between atoms: _494  and  _495
REMARK  203  A    between atoms: _494  and  _497
REMARK  204  A    between atoms: _497  and  _498
REMARK  205  A    between atoms: _501  and  _503
REMARK  206  A    between atoms: _503  and  _504
REMARK  207  A    between atoms: _503  and  _512
REMARK  208  A    between atoms: _504  and  _505
REMARK  209  A    between atoms: _505  and  _506
REMARK  210  A    between atoms: _506  and  _507
REMARK  211  A    between atoms: _507  and  _508
REMARK  212  A    between atoms: _514  and  _516
REMARK  213  A    between atoms: _516  and  _517
REMARK  214  A    between atoms: _516  and  _519
REMARK  215  A    between atoms: _519  and  _520
REMARK  216  A    between atoms: _525  and  _527
REMARK  217  A    between atoms: _527  and  _528
REMARK  218  A    between atoms: _527  and  _530
REMARK  219  A    between atoms: _530  and  _531
REMARK  220  A    between atoms: _531  and  _532
REMARK  221  A    between atoms: _534  and  _536
REMARK  222  A    between atoms: _536  and  _537
REMARK  223  A    between atoms: _540  and  _542
REMARK  224  A    between atoms: _542  and  _543
REMARK  225  A    between atoms: _542  and  _545
REMARK  226  A    between atoms: _548  and  _550
REMARK  227  A    between atoms: _550  and  _551
REMARK  228  A    between atoms: _550  and  _553
REMARK  229  A    between atoms: _553  and  _554
REMARK  230  A    between atoms: _554  and  _555
REMARK  231  A    between atoms: _560  and  _562
REMARK  232  A    between atoms: _562  and  _563
REMARK  233  A    between atoms: _562  and  _565
REMARK  234  A    between atoms: _565  and  _566
REMARK                            x       y       z     vdW  Elec       q    Type
REMARK                         _______ _______ _______ _____ _____    ______ ____
ROOT
ATOM      1  O   HOH     1      38.434 -58.377  -1.565  0.00  0.00    +0.000 OA
ENDROOT
TORSDOF 0
REMARK  Name = ../refined-set-2016/4fut/4fut_pocket.pdb
REMARK  234 active torsions:
REMARK  status: ('A' for Active; 'I' for Inactive)
REMARK    1  A    between atoms: _1  and  _3
REMARK    2  A    between atoms: _3  and  _4
REMARK    3  A    between atoms: _3  and  _6
REMARK    4  A    between atoms: _6  and  _7
REMARK    5  A    between atoms: _12  and  _13
REMARK    6  A    between atoms: _15  and  _17
REMARK    7  A    between atoms: _17  and  _18
REMARK    8  A    between atoms: _17  and  _20
REMARK    9  A    between atoms: _20  and  _21
REMARK   10  A    between atoms: _24  and  _26
REMARK   11  A    between atoms: _26  and  _27
REMARK   12  A    between atoms: _26  and  _29
REMARK   13  A    between atoms: _29  and  _30
REMARK   14  A    between atoms: _35  and  _36
REMARK   15  A    between atoms: _38  and  _40
REMARK   16  A    between atoms: _40  and  _41
REMARK   17  A    between atoms: _40  and  _43
REMARK   18  A    between atoms: _43  and  _44
REMARK   19  A    between atoms: _47  and  _49
REMARK   20  A    between atoms: _49  and  _50
REMARK   21  A    between atoms: _49  and  _52
REMARK   22  A    between atoms: _52  and  _53
REMARK   23  A    between atoms: _55  and  _57
REMARK   24  A    between atoms: _57  and  _58
REMARK   25  A    between atoms: _60  and  _62
REMARK   26  A    between atoms: _62  and  _63
REMARK   27  A    between atoms: _62  and  _65
REMARK   28  A    between atoms: _65  and  _66
REMARK   29  A    between atoms: _69  and  _71
REMARK   30  A    between atoms: _71  and  _72
REMARK   31  A    between atoms: _71  and  _74
REMARK   32  A    between atoms: _74  and  _75
REMARK   33  A    between atoms: _78  and  _80
REMARK   34  A    between atoms: _80  and  _81
REMARK   35  A    between atoms: _83  and  _85
REMARK   36  A    between atoms: _85  and  _86
REMARK   37  A    between atoms: _85  and  _88
REMARK   38  A    between atoms: _88  and  _89
REMARK   39  A    between atoms: _89  and  _90
REMARK   40  A    between atoms: _90  and  _91
REMARK   41  A    between atoms: _100  and  _102
REMARK   42  A    between atoms: _102  and  _103
REMARK   43  A    between atoms: _102  and  _105
REMARK   44  A    between atoms: _105  and  _106
REMARK   45  A    between atoms: _108  and  _110
REMARK   46  A    between atoms: _110  and  _111
REMARK   47  A    between atoms: _110  and  _119
REMARK   48  A    between atoms: _111  and  _112
REMARK   49  A    between atoms: _112  and  _113
REMARK   50  A    between atoms: _113  and  _114
REMARK   51  A    between atoms: _114  and  _115
REMARK   52  A    between atoms: _121  and  _123
REMARK   53  A    between atoms: _123  and  _124
REMARK   54  A    between atoms: _123  and  _126
REMARK   55  A    between atoms: _126  and  _127
REMARK   56  A    between atoms: _132  and  _134
REMARK   57  A    between atoms: _134  and  _135
REMARK   58  A    between atoms: _134  and  _137
REMARK   59  A    between atoms: _137  and  _138
REMARK   60  A    between atoms: _141  and  _143
REMARK   61  A    between atoms: _143  and  _144
REMARK   62  A    between atoms: _143  and  _146
REMARK   63  A    between atoms: _146  and  _147
REMARK   64  A    between atoms: _153  and  _154
REMARK   65  A    between atoms: _159  and  _161
REMARK   66  A    between atoms: _161  and  _162
REMARK   67  A    between atoms: _161  and  _164
REMARK   68  A    between atoms: _164  and  _165
REMARK   69  A    between atoms: _167  and  _169
REMARK   70  A    between atoms: _169  and  _170
REMARK   71  A    between atoms: _172  and  _174
REMARK   72  A    between atoms: _174  and  _175
REMARK   73  A    between atoms: _174  and  _177
REMARK   74  A    between atoms: _177  and  _178
REMARK   75  A    between atoms: _180  and  _182
REMARK   76  A    between atoms: _182  and  _183
REMARK   77  A    between atoms: _187  and  _188
REMARK   78  A    between atoms: _193  and  _195
REMARK   79  A    between atoms: _195  and  _196
REMARK   80  A    between atoms: _195  and  _198
REMARK   81  A    between atoms: _198  and  _199
REMARK   82  A    between atoms: _202  and  _204
REMARK   83  A    between atoms: _204  and  _205
REMARK   84  A    between atoms: _204  and  _207
REMARK   85  A    between atoms: _207  and  _208
REMARK   86  A    between atoms: _211  and  _213
REMARK   87  A    between atoms: _213  and  _214
REMARK   88  A    between atoms: _213  and  _216
REMARK   89  A    between atoms: _216  and  _217
REMARK   90  A    between atoms: _217  and  _218
REMARK   91  A    between atoms: _221  and  _223
REMARK   92  A    between atoms: _223  and  _224
REMARK   93  A    between atoms: _223  and  _226
REMARK   94  A    between atoms: _226  and  _227
REMARK   95  A    between atoms: _227  and  _228
REMARK   96  A    between atoms: _228  and  _229
REMARK   97  A    between atoms: _238  and  _240
REMARK   98  A    between atoms: _240  and  _241
REMARK   99  A    between atoms: _240  and  _243
REMARK  100  A    between atoms: _243  and  _244
REMARK  101  A    between atoms: _249  and  _250
REMARK  102  A    between atoms: _252  and  _254
REMARK  103  A    between atoms: _254  and  _255
REMARK  104  A    between atoms: _257  and  _259
REMARK  105  A    between atoms: _259  and  _260
REMARK  106  A    between atoms: _259  and  _262
REMARK  107  A    between atoms: _262  and  _263
REMARK  108  A    between atoms: _263  and  _264
REMARK  109  A    between atoms: _266  and  _268
REMARK  110  A    between atoms: _268  and  _269
REMARK  111  A    between atoms: _268  and  _271
REMARK  112  A    between atoms: _271  and  _272
REMARK  113  A    between atoms: _275  and  _277
REMARK  114  A    between atoms: _277  and  _278
REMARK  115  A    between atoms: _277  and  _280
REMARK  116  A    between atoms: _280  and  _281
REMARK  117  A    between atoms: _281  and  _282
REMARK  118  A    between atoms: _285  and  _287
REMARK  119  A    between atoms: _287  and  _288
REMARK  120  A    between atoms: _287  and  _290
REMARK  121  A    between atoms: _290  and  _291
REMARK  122  A    between atoms: _294  and  _296
REMARK  123  A    between atoms: _296  and  _297
REMARK  124  A    between atoms: _296  and  _299
REMARK  125  A    between atoms: _299  and  _300
REMARK  126  A    between atoms: _305  and  _307
REMARK  127  A    between atoms: _307  and  _308
REMARK  128  A    between atoms: _307  and  _310
REMARK  129  A    between atoms: _310  and  _311
REMARK  130  A    between atoms: _311  and  _312
REMARK  131  A    between atoms: _314  and  _316
REMARK  132  A    between atoms: _316  and  _317
REMARK  133  A    between atoms: _316  and  _319
REMARK  134  A    between atoms: _319  and  _320
REMARK  135  A    between atoms: _325  and  _327
REMARK  136  A    between atoms: _327  and  _328
REMARK  137  A    between atoms: _327  and  _330
REMARK  138  A    between atoms: _330  and  _331
REMARK  139  A    between atoms: _334  and  _336
REMARK  140  A    between atoms: _336  and  _337
REMARK  141  A    between atoms: _336  and  _339
REMARK  142  A    between atoms: _339  and  _340
REMARK  143  A    between atoms: _345  and  _347
REMARK  144  A    between atoms: _347  and  _348
REMARK  145  A    between atoms: _350  and  _352
REMARK  146  A    between atoms: _352  and  _353
REMARK  147  A    between atoms: _356  and  _358
REMARK  148  A    between atoms: _358  and  _359
REMARK  149  A    between atoms: _358  and  _361
REMARK  150  A    between atoms: _364  and  _366
REMARK  151  A    between atoms: _366  and  _367
REMARK  152  A    between atoms: _369  and  _371
REMARK  153  A    between atoms: _371  and  _372
REMARK  154  A    between atoms: _371  and  _374
REMARK  155  A    between atoms: _374  and  _375
REMARK  156  A    between atoms: _380  and  _381
REMARK  157  A    between atoms: _383  and  _385
REMARK  158  A    between atoms: _385  and  _386
REMARK  159  A    between atoms: _385  and  _388
REMARK  160  A    between atoms: _388  and  _389
REMARK  161  A    between atoms: _395  and  _397
REMARK  162  A    between atoms: _397  and  _398
REMARK  163  A    between atoms: _397  and  _400
REMARK  164  A    between atoms: _400  and  _401
REMARK  165  A    between atoms: _404  and  _406
REMARK  166  A    between atoms: _406  and  _407
REMARK  167  A    between atoms: _406  and  _409
REMARK  168  A    between atoms: _409  and  _410
REMARK  169  A    between atoms: _413  and  _415
REMARK  170  A    between atoms: _415  and  _416
REMARK  171  A    between atoms: _418  and  _420
REMARK  172  A    between atoms: _420  and  _421
REMARK  173  A    between atoms: _420  and  _423
REMARK  174  A    between atoms: _423  and  _424
REMARK  175  A    between atoms: _427  and  _429
REMARK  176  A    between atoms: _429  and  _430
REMARK  177  A    between atoms: _429  and  _432
REMARK  178  A    between atoms: _432  and  _433
REMARK  179  A    between atoms: _436  and  _438
REMARK  180  A    between atoms: _438  and  _439
REMARK  181  A    between atoms: _438  and  _441
REMARK  182  A    between atoms: _441  and  _442
REMARK  183  A    between atoms: _447  and  _449
REMARK  184  A    between atoms: _449  and  _450
REMARK  185  A    between atoms: _449  and  _452
REMARK  186  A    between atoms: _452  and  _453
REMARK  187  A    between atoms: _456  and  _458
REMARK  188  A    between atoms: _458  and  _459
REMARK  189  A    between atoms: _458  and  _461
REMARK  190  A    between atoms: _461  and  _462
REMARK  191  A    between atoms: _465  and  _467
REMARK  192  A    between atoms: _467  and  _468
REMARK  193  A    between atoms: _470  and  _472
REMARK  194  A    between atoms: _472  and  _473
REMARK  195  A    between atoms: _472  and  _475
REMARK  196  A    between atoms: _475  and  _476
REMARK  197  A    between atoms: _476  and  _477
REMARK  198  A    between atoms: _477  and  _478
REMARK  199  A    between atoms: _487  and  _489
REMARK  200  A    between atoms: _489  and  _490
REMARK  201  A    between atoms: _492  and  _494
REMARK  202  A    between atoms: _494  and  _495
REMARK  203  A    between atoms: _494  and  _497
REMARK  204  A    between atoms: _497  and  _498
REMARK  205  A    between atoms: _501  and  _503
REMARK  206  A    between atoms: _503  and  _504
REMARK  207  A    between atoms: _503  and  _512
REMARK  208  A    between atoms: _504  and  _505
REMARK  209  A    between atoms: _505  and  _506
REMARK  210  A    between atoms: _506  and  _507
REMARK  211  A    between atoms: _507  and  _508
REMARK  212  A    between atoms: _514  and  _516
REMARK  213  A    between atoms: _516  and  _517
REMARK  214  A    between atoms: _516  and  _519
REMARK  215  A    between atoms: _519  and  _520
REMARK  216  A    between atoms: _525  and  _527
REMARK  217  A    between atoms: _527  and  _528
REMARK  218  A    between atoms: _527  and  _530
REMARK  219  A    between atoms: _530  and  _531
REMARK  220  A    between atoms: _531  and  _532
REMARK  221  A    between atoms: _534  and  _536
REMARK  222  A    between atoms: _536  and  _537
REMARK  223  A    between atoms: _540  and  _542
REMARK  224  A    between atoms: _542  and  _543
REMARK  225  A    between atoms: _542  and  _545
REMARK  226  A    between atoms: _548  and  _550
REMARK  227  A    between atoms: _550  and  _551
REMARK  228  A    between atoms: _550  and  _553
REMARK  229  A    between atoms: _553  and  _554
REMARK  230  A    between atoms: _554  and  _555
REMARK  231  A    between atoms: _560  and  _562
REMARK  232  A    between atoms: _562  and  _563
REMARK  233  A    between atoms: _562  and  _565
REMARK  234  A    between atoms: _565  and  _566
REMARK                            x       y       z     vdW  Elec       q    Type
REMARK                         _______ _______ _______ _____ _____    ______ ____
ROOT
ATOM      1  O   HOH     1      37.923 -43.179  -0.699  0.00  0.00    +0.000 OA
ENDROOT
TORSDOF 0
REMARK  Name = ../refined-set-2016/4fut/4fut_pocket.pdb
REMARK  234 active torsions:
REMARK  status: ('A' for Active; 'I' for Inactive)
REMARK    1  A    between atoms: _1  and  _3
REMARK    2  A    between atoms: _3  and  _4
REMARK    3  A    between atoms: _3  and  _6
REMARK    4  A    between atoms: _6  and  _7
REMARK    5  A    between atoms: _12  and  _13
REMARK    6  A    between atoms: _15  and  _17
REMARK    7  A    between atoms: _17  and  _18
REMARK    8  A    between atoms: _17  and  _20
REMARK    9  A    between atoms: _20  and  _21
REMARK   10  A    between atoms: _24  and  _26
REMARK   11  A    between atoms: _26  and  _27
REMARK   12  A    between atoms: _26  and  _29
REMARK   13  A    between atoms: _29  and  _30
REMARK   14  A    between atoms: _35  and  _36
REMARK   15  A    between atoms: _38  and  _40
REMARK   16  A    between atoms: _40  and  _41
REMARK   17  A    between atoms: _40  and  _43
REMARK   18  A    between atoms: _43  and  _44
REMARK   19  A    between atoms: _47  and  _49
REMARK   20  A    between atoms: _49  and  _50
REMARK   21  A    between atoms: _49  and  _52
REMARK   22  A    between atoms: _52  and  _53
REMARK   23  A    between atoms: _55  and  _57
REMARK   24  A    between atoms: _57  and  _58
REMARK   25  A    between atoms: _60  and  _62
REMARK   26  A    between atoms: _62  and  _63
REMARK   27  A    between atoms: _62  and  _65
REMARK   28  A    between atoms: _65  and  _66
REMARK   29  A    between atoms: _69  and  _71
REMARK   30  A    between atoms: _71  and  _72
REMARK   31  A    between atoms: _71  and  _74
REMARK   32  A    between atoms: _74  and  _75
REMARK   33  A    between atoms: _78  and  _80
REMARK   34  A    between atoms: _80  and  _81
REMARK   35  A    between atoms: _83  and  _85
REMARK   36  A    between atoms: _85  and  _86
REMARK   37  A    between atoms: _85  and  _88
REMARK   38  A    between atoms: _88  and  _89
REMARK   39  A    between atoms: _89  and  _90
REMARK   40  A    between atoms: _90  and  _91
REMARK   41  A    between atoms: _100  and  _102
REMARK   42  A    between atoms: _102  and  _103
REMARK   43  A    between atoms: _102  and  _105
REMARK   44  A    between atoms: _105  and  _106
REMARK   45  A    between atoms: _108  and  _110
REMARK   46  A    between atoms: _110  and  _111
REMARK   47  A    between atoms: _110  and  _119
REMARK   48  A    between atoms: _111  and  _112
REMARK   49  A    between atoms: _112  and  _113
REMARK   50  A    between atoms: _113  and  _114
REMARK   51  A    between atoms: _114  and  _115
REMARK   52  A    between atoms: _121  and  _123
REMARK   53  A    between atoms: _123  and  _124
REMARK   54  A    between atoms: _123  and  _126
REMARK   55  A    between atoms: _126  and  _127
REMARK   56  A    between atoms: _132  and  _134
REMARK   57  A    between atoms: _134  and  _135
REMARK   58  A    between atoms: _134  and  _137
REMARK   59  A    between atoms: _137  and  _138
REMARK   60  A    between atoms: _141  and  _143
REMARK   61  A    between atoms: _143  and  _144
REMARK   62  A    between atoms: _143  and  _146
REMARK   63  A    between atoms: _146  and  _147
REMARK   64  A    between atoms: _153  and  _154
REMARK   65  A    between atoms: _159  and  _161
REMARK   66  A    between atoms: _161  and  _162
REMARK   67  A    between atoms: _161  and  _164
REMARK   68  A    between atoms: _164  and  _165
REMARK   69  A    between atoms: _167  and  _169
REMARK   70  A    between atoms: _169  and  _170
REMARK   71  A    between atoms: _172  and  _174
REMARK   72  A    between atoms: _174  and  _175
REMARK   73  A    between atoms: _174  and  _177
REMARK   74  A    between atoms: _177  and  _178
REMARK   75  A    between atoms: _180  and  _182
REMARK   76  A    between atoms: _182  and  _183
REMARK   77  A    between atoms: _187  and  _188
REMARK   78  A    between atoms: _193  and  _195
REMARK   79  A    between atoms: _195  and  _196
REMARK   80  A    between atoms: _195  and  _198
REMARK   81  A    between atoms: _198  and  _199
REMARK   82  A    between atoms: _202  and  _204
REMARK   83  A    between atoms: _204  and  _205
REMARK   84  A    between atoms: _204  and  _207
REMARK   85  A    between atoms: _207  and  _208
REMARK   86  A    between atoms: _211  and  _213
REMARK   87  A    between atoms: _213  and  _214
REMARK   88  A    between atoms: _213  and  _216
REMARK   89  A    between atoms: _216  and  _217
REMARK   90  A    between atoms: _217  and  _218
REMARK   91  A    between atoms: _221  and  _223
REMARK   92  A    between atoms: _223  and  _224
REMARK   93  A    between atoms: _223  and  _226
REMARK   94  A    between atoms: _226  and  _227
REMARK   95  A    between atoms: _227  and  _228
REMARK   96  A    between atoms: _228  and  _229
REMARK   97  A    between atoms: _238  and  _240
REMARK   98  A    between atoms: _240  and  _241
REMARK   99  A    between atoms: _240  and  _243
REMARK  100  A    between atoms: _243  and  _244
REMARK  101  A    between atoms: _249  and  _250
REMARK  102  A    between atoms: _252  and  _254
REMARK  103  A    between atoms: _254  and  _255
REMARK  104  A    between atoms: _257  and  _259
REMARK  105  A    between atoms: _259  and  _260
REMARK  106  A    between atoms: _259  and  _262
REMARK  107  A    between atoms: _262  and  _263
REMARK  108  A    between atoms: _263  and  _264
REMARK  109  A    between atoms: _266  and  _268
REMARK  110  A    between atoms: _268  and  _269
REMARK  111  A    between atoms: _268  and  _271
REMARK  112  A    between atoms: _271  and  _272
REMARK  113  A    between atoms: _275  and  _277
REMARK  114  A    between atoms: _277  and  _278
REMARK  115  A    between atoms: _277  and  _280
REMARK  116  A    between atoms: _280  and  _281
REMARK  117  A    between atoms: _281  and  _282
REMARK  118  A    between atoms: _285  and  _287
REMARK  119  A    between atoms: _287  and  _288
REMARK  120  A    between atoms: _287  and  _290
REMARK  121  A    between atoms: _290  and  _291
REMARK  122  A    between atoms: _294  and  _296
REMARK  123  A    between atoms: _296  and  _297
REMARK  124  A    between atoms: _296  and  _299
REMARK  125  A    between atoms: _299  and  _300
REMARK  126  A    between atoms: _305  and  _307
REMARK  127  A    between atoms: _307  and  _308
REMARK  128  A    between atoms: _307  and  _310
REMARK  129  A    between atoms: _310  and  _311
REMARK  130  A    between atoms: _311  and  _312
REMARK  131  A    between atoms: _314  and  _316
REMARK  132  A    between atoms: _316  and  _317
REMARK  133  A    between atoms: _316  and  _319
REMARK  134  A    between atoms: _319  and  _320
REMARK  135  A    between atoms: _325  and  _327
REMARK  136  A    between atoms: _327  and  _328
REMARK  137  A    between atoms: _327  and  _330
REMARK  138  A    between atoms: _330  and  _331
REMARK  139  A    between atoms: _334  and  _336
REMARK  140  A    between atoms: _336  and  _337
REMARK  141  A    between atoms: _336  and  _339
REMARK  142  A    between atoms: _339  and  _340
REMARK  143  A    between atoms: _345  and  _347
REMARK  144  A    between atoms: _347  and  _348
REMARK  145  A    between atoms: _350  and  _352
REMARK  146  A    between atoms: _352  and  _353
REMARK  147  A    between atoms: _356  and  _358
REMARK  148  A    between atoms: _358  and  _359
REMARK  149  A    between atoms: _358  and  _361
REMARK  150  A    between atoms: _364  and  _366
REMARK  151  A    between atoms: _366  and  _367
REMARK  152  A    between atoms: _369  and  _371
REMARK  153  A    between atoms: _371  and  _372
REMARK  154  A    between atoms: _371  and  _374
REMARK  155  A    between atoms: _374  and  _375
REMARK  156  A    between atoms: _380  and  _381
REMARK  157  A    between atoms: _383  and  _385
REMARK  158  A    between atoms: _385  and  _386
REMARK  159  A    between atoms: _385  and  _388
REMARK  160  A    between atoms: _388  and  _389
REMARK  161  A    between atoms: _395  and  _397
REMARK  162  A    between atoms: _397  and  _398
REMARK  163  A    between atoms: _397  and  _400
REMARK  164  A    between atoms: _400  and  _401
REMARK  165  A    between atoms: _404  and  _406
REMARK  166  A    between atoms: _406  and  _407
REMARK  167  A    between atoms: _406  and  _409
REMARK  168  A    between atoms: _409  and  _410
REMARK  169  A    between atoms: _413  and  _415
REMARK  170  A    between atoms: _415  and  _416
REMARK  171  A    between atoms: _418  and  _420
REMARK  172  A    between atoms: _420  and  _421
REMARK  173  A    between atoms: _420  and  _423
REMARK  174  A    between atoms: _423  and  _424
REMARK  175  A    between atoms: _427  and  _429
REMARK  176  A    between atoms: _429  and  _430
REMARK  177  A    between atoms: _429  and  _432
REMARK  178  A    between atoms: _432  and  _433
REMARK  179  A    between atoms: _436  and  _438
REMARK  180  A    between atoms: _438  and  _439
REMARK  181  A    between atoms: _438  and  _441
REMARK  182  A    between atoms: _441  and  _442
REMARK  183  A    between atoms: _447  and  _449
REMARK  184  A    between atoms: _449  and  _450
REMARK  185  A    between atoms: _449  and  _452
REMARK  186  A    between atoms: _452  and  _453
REMARK  187  A    between atoms: _456  and  _458
REMARK  188  A    between atoms: _458  and  _459
REMARK  189  A    between atoms: _458  and  _461
REMARK  190  A    between atoms: _461  and  _462
REMARK  191  A    between atoms: _465  and  _467
REMARK  192  A    between atoms: _467  and  _468
REMARK  193  A    between atoms: _470  and  _472
REMARK  194  A    between atoms: _472  and  _473
REMARK  195  A    between atoms: _472  and  _475
REMARK  196  A    between atoms: _475  and  _476
REMARK  197  A    between atoms: _476  and  _477
REMARK  198  A    between atoms: _477  and  _478
REMARK  199  A    between atoms: _487  and  _489
REMARK  200  A    between atoms: _489  and  _490
REMARK  201  A    between atoms: _492  and  _494
REMARK  202  A    between atoms: _494  and  _495
REMARK  203  A    between atoms: _494  and  _497
REMARK  204  A    between atoms: _497  and  _498
REMARK  205  A    between atoms: _501  and  _503
REMARK  206  A    between atoms: _503  and  _504
REMARK  207  A    between atoms: _503  and  _512
REMARK  208  A    between atoms: _504  and  _505
REMARK  209  A    between atoms: _505  and  _506
REMARK  210  A    between atoms: _506  and  _507
REMARK  211  A    between atoms: _507  and  _508
REMARK  212  A    between atoms: _514  and  _516
REMARK  213  A    between atoms: _516  and  _517
REMARK  214  A    between atoms: _516  and  _519
REMARK  215  A    between atoms: _519  and  _520
REMARK  216  A    between atoms: _525  and  _527
REMARK  217  A    between atoms: _527  and  _528
REMARK  218  A    between atoms: _527  and  _530
REMARK  219  A    between atoms: _530  and  _531
REMARK  220  A    between atoms: _531  and  _532
REMARK  221  A    between atoms: _534  and  _536
REMARK  222  A    between atoms: _536  and  _537
REMARK  223  A    between atoms: _540  and  _542
REMARK  224  A    between atoms: _542  and  _543
REMARK  225  A    between atoms: _542  and  _545
REMARK  226  A    between atoms: _548  and  _550
REMARK  227  A    between atoms: _550  and  _551
REMARK  228  A    between atoms: _550  and  _553
REMARK  229  A    between atoms: _553  and  _554
REMARK  230  A    between atoms: _554  and  _555
REMARK  231  A    between atoms: _560  and  _562
REMARK  232  A    between atoms: _562  and  _563
REMARK  233  A    between atoms: _562  and  _565
REMARK  234  A    between atoms: _565  and  _566
REMARK                            x       y       z     vdW  Elec       q    Type
REMARK                         _______ _______ _______ _____ _____    ______ ____
ROOT
ATOM      1  O   HOH     1      46.184 -48.251   0.914  0.00  0.00    +0.000 OA
ENDROOT
TORSDOF 0
REMARK  Name = ../refined-set-2016/4fut/4fut_pocket.pdb
REMARK  234 active torsions:
REMARK  status: ('A' for Active; 'I' for Inactive)
REMARK    1  A    between atoms: _1  and  _3
REMARK    2  A    between atoms: _3  and  _4
REMARK    3  A    between atoms: _3  and  _6
REMARK    4  A    between atoms: _6  and  _7
REMARK    5  A    between atoms: _12  and  _13
REMARK    6  A    between atoms: _15  and  _17
REMARK    7  A    between atoms: _17  and  _18
REMARK    8  A    between atoms: _17  and  _20
REMARK    9  A    between atoms: _20  and  _21
REMARK   10  A    between atoms: _24  and  _26
REMARK   11  A    between atoms: _26  and  _27
REMARK   12  A    between atoms: _26  and  _29
REMARK   13  A    between atoms: _29  and  _30
REMARK   14  A    between atoms: _35  and  _36
REMARK   15  A    between atoms: _38  and  _40
REMARK   16  A    between atoms: _40  and  _41
REMARK   17  A    between atoms: _40  and  _43
REMARK   18  A    between atoms: _43  and  _44
REMARK   19  A    between atoms: _47  and  _49
REMARK   20  A    between atoms: _49  and  _50
REMARK   21  A    between atoms: _49  and  _52
REMARK   22  A    between atoms: _52  and  _53
REMARK   23  A    between atoms: _55  and  _57
REMARK   24  A    between atoms: _57  and  _58
REMARK   25  A    between atoms: _60  and  _62
REMARK   26  A    between atoms: _62  and  _63
REMARK   27  A    between atoms: _62  and  _65
REMARK   28  A    between atoms: _65  and  _66
REMARK   29  A    between atoms: _69  and  _71
REMARK   30  A    between atoms: _71  and  _72
REMARK   31  A    between atoms: _71  and  _74
REMARK   32  A    between atoms: _74  and  _75
REMARK   33  A    between atoms: _78  and  _80
REMARK   34  A    between atoms: _80  and  _81
REMARK   35  A    between atoms: _83  and  _85
REMARK   36  A    between atoms: _85  and  _86
REMARK   37  A    between atoms: _85  and  _88
REMARK   38  A    between atoms: _88  and  _89
REMARK   39  A    between atoms: _89  and  _90
REMARK   40  A    between atoms: _90  and  _91
REMARK   41  A    between atoms: _100  and  _102
REMARK   42  A    between atoms: _102  and  _103
REMARK   43  A    between atoms: _102  and  _105
REMARK   44  A    between atoms: _105  and  _106
REMARK   45  A    between atoms: _108  and  _110
REMARK   46  A    between atoms: _110  and  _111
REMARK   47  A    between atoms: _110  and  _119
REMARK   48  A    between atoms: _111  and  _112
REMARK   49  A    between atoms: _112  and  _113
REMARK   50  A    between atoms: _113  and  _114
REMARK   51  A    between atoms: _114  and  _115
REMARK   52  A    between atoms: _121  and  _123
REMARK   53  A    between atoms: _123  and  _124
REMARK   54  A    between atoms: _123  and  _126
REMARK   55  A    between atoms: _126  and  _127
REMARK   56  A    between atoms: _132  and  _134
REMARK   57  A    between atoms: _134  and  _135
REMARK   58  A    between atoms: _134  and  _137
REMARK   59  A    between atoms: _137  and  _138
REMARK   60  A    between atoms: _141  and  _143
REMARK   61  A    between atoms: _143  and  _144
REMARK   62  A    between atoms: _143  and  _146
REMARK   63  A    between atoms: _146  and  _147
REMARK   64  A    between atoms: _153  and  _154
REMARK   65  A    between atoms: _159  and  _161
REMARK   66  A    between atoms: _161  and  _162
REMARK   67  A    between atoms: _161  and  _164
REMARK   68  A    between atoms: _164  and  _165
REMARK   69  A    between atoms: _167  and  _169
REMARK   70  A    between atoms: _169  and  _170
REMARK   71  A    between atoms: _172  and  _174
REMARK   72  A    between atoms: _174  and  _175
REMARK   73  A    between atoms: _174  and  _177
REMARK   74  A    between atoms: _177  and  _178
REMARK   75  A    between atoms: _180  and  _182
REMARK   76  A    between atoms: _182  and  _183
REMARK   77  A    between atoms: _187  and  _188
REMARK   78  A    between atoms: _193  and  _195
REMARK   79  A    between atoms: _195  and  _196
REMARK   80  A    between atoms: _195  and  _198
REMARK   81  A    between atoms: _198  and  _199
REMARK   82  A    between atoms: _202  and  _204
REMARK   83  A    between atoms: _204  and  _205
REMARK   84  A    between atoms: _204  and  _207
REMARK   85  A    between atoms: _207  and  _208
REMARK   86  A    between atoms: _211  and  _213
REMARK   87  A    between atoms: _213  and  _214
REMARK   88  A    between atoms: _213  and  _216
REMARK   89  A    between atoms: _216  and  _217
REMARK   90  A    between atoms: _217  and  _218
REMARK   91  A    between atoms: _221  and  _223
REMARK   92  A    between atoms: _223  and  _224
REMARK   93  A    between atoms: _223  and  _226
REMARK   94  A    between atoms: _226  and  _227
REMARK   95  A    between atoms: _227  and  _228
REMARK   96  A    between atoms: _228  and  _229
REMARK   97  A    between atoms: _238  and  _240
REMARK   98  A    between atoms: _240  and  _241
REMARK   99  A    between atoms: _240  and  _243
REMARK  100  A    between atoms: _243  and  _244
REMARK  101  A    between atoms: _249  and  _250
REMARK  102  A    between atoms: _252  and  _254
REMARK  103  A    between atoms: _254  and  _255
REMARK  104  A    between atoms: _257  and  _259
REMARK  105  A    between atoms: _259  and  _260
REMARK  106  A    between atoms: _259  and  _262
REMARK  107  A    between atoms: _262  and  _263
REMARK  108  A    between atoms: _263  and  _264
REMARK  109  A    between atoms: _266  and  _268
REMARK  110  A    between atoms: _268  and  _269
REMARK  111  A    between atoms: _268  and  _271
REMARK  112  A    between atoms: _271  and  _272
REMARK  113  A    between atoms: _275  and  _277
REMARK  114  A    between atoms: _277  and  _278
REMARK  115  A    between atoms: _277  and  _280
REMARK  116  A    between atoms: _280  and  _281
REMARK  117  A    between atoms: _281  and  _282
REMARK  118  A    between atoms: _285  and  _287
REMARK  119  A    between atoms: _287  and  _288
REMARK  120  A    between atoms: _287  and  _290
REMARK  121  A    between atoms: _290  and  _291
REMARK  122  A    between atoms: _294  and  _296
REMARK  123  A    between atoms: _296  and  _297
REMARK  124  A    between atoms: _296  and  _299
REMARK  125  A    between atoms: _299  and  _300
REMARK  126  A    between atoms: _305  and  _307
REMARK  127  A    between atoms: _307  and  _308
REMARK  128  A    between atoms: _307  and  _310
REMARK  129  A    between atoms: _310  and  _311
REMARK  130  A    between atoms: _311  and  _312
REMARK  131  A    between atoms: _314  and  _316
REMARK  132  A    between atoms: _316  and  _317
REMARK  133  A    between atoms: _316  and  _319
REMARK  134  A    between atoms: _319  and  _320
REMARK  135  A    between atoms: _325  and  _327
REMARK  136  A    between atoms: _327  and  _328
REMARK  137  A    between atoms: _327  and  _330
REMARK  138  A    between atoms: _330  and  _331
REMARK  139  A    between atoms: _334  and  _336
REMARK  140  A    between atoms: _336  and  _337
REMARK  141  A    between atoms: _336  and  _339
REMARK  142  A    between atoms: _339  and  _340
REMARK  143  A    between atoms: _345  and  _347
REMARK  144  A    between atoms: _347  and  _348
REMARK  145  A    between atoms: _350  and  _352
REMARK  146  A    between atoms: _352  and  _353
REMARK  147  A    between atoms: _356  and  _358
REMARK  148  A    between atoms: _358  and  _359
REMARK  149  A    between atoms: _358  and  _361
REMARK  150  A    between atoms: _364  and  _366
REMARK  151  A    between atoms: _366  and  _367
REMARK  152  A    between atoms: _369  and  _371
REMARK  153  A    between atoms: _371  and  _372
REMARK  154  A    between atoms: _371  and  _374
REMARK  155  A    between atoms: _374  and  _375
REMARK  156  A    between atoms: _380  and  _381
REMARK  157  A    between atoms: _383  and  _385
REMARK  158  A    between atoms: _385  and  _386
REMARK  159  A    between atoms: _385  and  _388
REMARK  160  A    between atoms: _388  and  _389
REMARK  161  A    between atoms: _395  and  _397
REMARK  162  A    between atoms: _397  and  _398
REMARK  163  A    between atoms: _397  and  _400
REMARK  164  A    between atoms: _400  and  _401
REMARK  165  A    between atoms: _404  and  _406
REMARK  166  A    between atoms: _406  and  _407
REMARK  167  A    between atoms: _406  and  _409
REMARK  168  A    between atoms: _409  and  _410
REMARK  169  A    between atoms: _413  and  _415
REMARK  170  A    between atoms: _415  and  _416
REMARK  171  A    between atoms: _418  and  _420
REMARK  172  A    between atoms: _420  and  _421
REMARK  173  A    between atoms: _420  and  _423
REMARK  174  A    between atoms: _423  and  _424
REMARK  175  A    between atoms: _427  and  _429
REMARK  176  A    between atoms: _429  and  _430
REMARK  177  A    between atoms: _429  and  _432
REMARK  178  A    between atoms: _432  and  _433
REMARK  179  A    between atoms: _436  and  _438
REMARK  180  A    between atoms: _438  and  _439
REMARK  181  A    between atoms: _438  and  _441
REMARK  182  A    between atoms: _441  and  _442
REMARK  183  A    between atoms: _447  and  _449
REMARK  184  A    between atoms: _449  and  _450
REMARK  185  A    between atoms: _449  and  _452
REMARK  186  A    between atoms: _452  and  _453
REMARK  187  A    between atoms: _456  and  _458
REMARK  188  A    between atoms: _458  and  _459
REMARK  189  A    between atoms: _458  and  _461
REMARK  190  A    between atoms: _461  and  _462
REMARK  191  A    between atoms: _465  and  _467
REMARK  192  A    between atoms: _467  and  _468
REMARK  193  A    between atoms: _470  and  _472
REMARK  194  A    between atoms: _472  and  _473
REMARK  195  A    between atoms: _472  and  _475
REMARK  196  A    between atoms: _475  and  _476
REMARK  197  A    between atoms: _476  and  _477
REMARK  198  A    between atoms: _477  and  _478
REMARK  199  A    between atoms: _487  and  _489
REMARK  200  A    between atoms: _489  and  _490
REMARK  201  A    between atoms: _492  and  _494
REMARK  202  A    between atoms: _494  and  _495
REMARK  203  A    between atoms: _494  and  _497
REMARK  204  A    between atoms: _497  and  _498
REMARK  205  A    between atoms: _501  and  _503
REMARK  206  A    between atoms: _503  and  _504
REMARK  207  A    between atoms: _503  and  _512
REMARK  208  A    between atoms: _504  and  _505
REMARK  209  A    between atoms: _505  and  _506
REMARK  210  A    between atoms: _506  and  _507
REMARK  211  A    between atoms: _507  and  _508
REMARK  212  A    between atoms: _514  and  _516
REMARK  213  A    between atoms: _516  and  _517
REMARK  214  A    between atoms: _516  and  _519
REMARK  215  A    between atoms: _519  and  _520
REMARK  216  A    between atoms: _525  and  _527
REMARK  217  A    between atoms: _527  and  _528
REMARK  218  A    between atoms: _527  and  _530
REMARK  219  A    between atoms: _530  and  _531
REMARK  220  A    between atoms: _531  and  _532
REMARK  221  A    between atoms: _534  and  _536
REMARK  222  A    between atoms: _536  and  _537
REMARK  223  A    between atoms: _540  and  _542
REMARK  224  A    between atoms: _542  and  _543
REMARK  225  A    between atoms: _542  and  _545
REMARK  226  A    between atoms: _548  and  _550
REMARK  227  A    between atoms: _550  and  _551
REMARK  228  A    between atoms: _550  and  _553
REMARK  229  A    between atoms: _553  and  _554
REMARK  230  A    between atoms: _554  and  _555
REMARK  231  A    between atoms: _560  and  _562
REMARK  232  A    between atoms: _562  and  _563
REMARK  233  A    between atoms: _562  and  _565
REMARK  234  A    between atoms: _565  and  _566
REMARK                            x       y       z     vdW  Elec       q    Type
REMARK                         _______ _______ _______ _____ _____    ______ ____
ROOT
ATOM      1  O   HOH     1      40.449 -59.004  -3.758  0.00  0.00    +0.000 OA
ENDROOT
TORSDOF 0
REMARK  Name = ../refined-set-2016/4fut/4fut_pocket.pdb
REMARK  234 active torsions:
REMARK  status: ('A' for Active; 'I' for Inactive)
REMARK    1  A    between atoms: _1  and  _3
REMARK    2  A    between atoms: _3  and  _4
REMARK    3  A    between atoms: _3  and  _6
REMARK    4  A    between atoms: _6  and  _7
REMARK    5  A    between atoms: _12  and  _13
REMARK    6  A    between atoms: _15  and  _17
REMARK    7  A    between atoms: _17  and  _18
REMARK    8  A    between atoms: _17  and  _20
REMARK    9  A    between atoms: _20  and  _21
REMARK   10  A    between atoms: _24  and  _26
REMARK   11  A    between atoms: _26  and  _27
REMARK   12  A    between atoms: _26  and  _29
REMARK   13  A    between atoms: _29  and  _30
REMARK   14  A    between atoms: _35  and  _36
REMARK   15  A    between atoms: _38  and  _40
REMARK   16  A    between atoms: _40  and  _41
REMARK   17  A    between atoms: _40  and  _43
REMARK   18  A    between atoms: _43  and  _44
REMARK   19  A    between atoms: _47  and  _49
REMARK   20  A    between atoms: _49  and  _50
REMARK   21  A    between atoms: _49  and  _52
REMARK   22  A    between atoms: _52  and  _53
REMARK   23  A    between atoms: _55  and  _57
REMARK   24  A    between atoms: _57  and  _58
REMARK   25  A    between atoms: _60  and  _62
REMARK   26  A    between atoms: _62  and  _63
REMARK   27  A    between atoms: _62  and  _65
REMARK   28  A    between atoms: _65  and  _66
REMARK   29  A    between atoms: _69  and  _71
REMARK   30  A    between atoms: _71  and  _72
REMARK   31  A    between atoms: _71  and  _74
REMARK   32  A    between atoms: _74  and  _75
REMARK   33  A    between atoms: _78  and  _80
REMARK   34  A    between atoms: _80  and  _81
REMARK   35  A    between atoms: _83  and  _85
REMARK   36  A    between atoms: _85  and  _86
REMARK   37  A    between atoms: _85  and  _88
REMARK   38  A    between atoms: _88  and  _89
REMARK   39  A    between atoms: _89  and  _90
REMARK   40  A    between atoms: _90  and  _91
REMARK   41  A    between atoms: _100  and  _102
REMARK   42  A    between atoms: _102  and  _103
REMARK   43  A    between atoms: _102  and  _105
REMARK   44  A    between atoms: _105  and  _106
REMARK   45  A    between atoms: _108  and  _110
REMARK   46  A    between atoms: _110  and  _111
REMARK   47  A    between atoms: _110  and  _119
REMARK   48  A    between atoms: _111  and  _112
REMARK   49  A    between atoms: _112  and  _113
REMARK   50  A    between atoms: _113  and  _114
REMARK   51  A    between atoms: _114  and  _115
REMARK   52  A    between atoms: _121  and  _123
REMARK   53  A    between atoms: _123  and  _124
REMARK   54  A    between atoms: _123  and  _126
REMARK   55  A    between atoms: _126  and  _127
REMARK   56  A    between atoms: _132  and  _134
REMARK   57  A    between atoms: _134  and  _135
REMARK   58  A    between atoms: _134  and  _137
REMARK   59  A    between atoms: _137  and  _138
REMARK   60  A    between atoms: _141  and  _143
REMARK   61  A    between atoms: _143  and  _144
REMARK   62  A    between atoms: _143  and  _146
REMARK   63  A    between atoms: _146  and  _147
REMARK   64  A    between atoms: _153  and  _154
REMARK   65  A    between atoms: _159  and  _161
REMARK   66  A    between atoms: _161  and  _162
REMARK   67  A    between atoms: _161  and  _164
REMARK   68  A    between atoms: _164  and  _165
REMARK   69  A    between atoms: _167  and  _169
REMARK   70  A    between atoms: _169  and  _170
REMARK   71  A    between atoms: _172  and  _174
REMARK   72  A    between atoms: _174  and  _175
REMARK   73  A    between atoms: _174  and  _177
REMARK   74  A    between atoms: _177  and  _178
REMARK   75  A    between atoms: _180  and  _182
REMARK   76  A    between atoms: _182  and  _183
REMARK   77  A    between atoms: _187  and  _188
REMARK   78  A    between atoms: _193  and  _195
REMARK   79  A    between atoms: _195  and  _196
REMARK   80  A    between atoms: _195  and  _198
REMARK   81  A    between atoms: _198  and  _199
REMARK   82  A    between atoms: _202  and  _204
REMARK   83  A    between atoms: _204  and  _205
REMARK   84  A    between atoms: _204  and  _207
REMARK   85  A    between atoms: _207  and  _208
REMARK   86  A    between atoms: _211  and  _213
REMARK   87  A    between atoms: _213  and  _214
REMARK   88  A    between atoms: _213  and  _216
REMARK   89  A    between atoms: _216  and  _217
REMARK   90  A    between atoms: _217  and  _218
REMARK   91  A    between atoms: _221  and  _223
REMARK   92  A    between atoms: _223  and  _224
REMARK   93  A    between atoms: _223  and  _226
REMARK   94  A    between atoms: _226  and  _227
REMARK   95  A    between atoms: _227  and  _228
REMARK   96  A    between atoms: _228  and  _229
REMARK   97  A    between atoms: _238  and  _240
REMARK   98  A    between atoms: _240  and  _241
REMARK   99  A    between atoms: _240  and  _243
REMARK  100  A    between atoms: _243  and  _244
REMARK  101  A    between atoms: _249  and  _250
REMARK  102  A    between atoms: _252  and  _254
REMARK  103  A    between atoms: _254  and  _255
REMARK  104  A    between atoms: _257  and  _259
REMARK  105  A    between atoms: _259  and  _260
REMARK  106  A    between atoms: _259  and  _262
REMARK  107  A    between atoms: _262  and  _263
REMARK  108  A    between atoms: _263  and  _264
REMARK  109  A    between atoms: _266  and  _268
REMARK  110  A    between atoms: _268  and  _269
REMARK  111  A    between atoms: _268  and  _271
REMARK  112  A    between atoms: _271  and  _272
REMARK  113  A    between atoms: _275  and  _277
REMARK  114  A    between atoms: _277  and  _278
REMARK  115  A    between atoms: _277  and  _280
REMARK  116  A    between atoms: _280  and  _281
REMARK  117  A    between atoms: _281  and  _282
REMARK  118  A    between atoms: _285  and  _287
REMARK  119  A    between atoms: _287  and  _288
REMARK  120  A    between atoms: _287  and  _290
REMARK  121  A    between atoms: _290  and  _291
REMARK  122  A    between atoms: _294  and  _296
REMARK  123  A    between atoms: _296  and  _297
REMARK  124  A    between atoms: _296  and  _299
REMARK  125  A    between atoms: _299  and  _300
REMARK  126  A    between atoms: _305  and  _307
REMARK  127  A    between atoms: _307  and  _308
REMARK  128  A    between atoms: _307  and  _310
REMARK  129  A    between atoms: _310  and  _311
REMARK  130  A    between atoms: _311  and  _312
REMARK  131  A    between atoms: _314  and  _316
REMARK  132  A    between atoms: _316  and  _317
REMARK  133  A    between atoms: _316  and  _319
REMARK  134  A    between atoms: _319  and  _320
REMARK  135  A    between atoms: _325  and  _327
REMARK  136  A    between atoms: _327  and  _328
REMARK  137  A    between atoms: _327  and  _330
REMARK  138  A    between atoms: _330  and  _331
REMARK  139  A    between atoms: _334  and  _336
REMARK  140  A    between atoms: _336  and  _337
REMARK  141  A    between atoms: _336  and  _339
REMARK  142  A    between atoms: _339  and  _340
REMARK  143  A    between atoms: _345  and  _347
REMARK  144  A    between atoms: _347  and  _348
REMARK  145  A    between atoms: _350  and  _352
REMARK  146  A    between atoms: _352  and  _353
REMARK  147  A    between atoms: _356  and  _358
REMARK  148  A    between atoms: _358  and  _359
REMARK  149  A    between atoms: _358  and  _361
REMARK  150  A    between atoms: _364  and  _366
REMARK  151  A    between atoms: _366  and  _367
REMARK  152  A    between atoms: _369  and  _371
REMARK  153  A    between atoms: _371  and  _372
REMARK  154  A    between atoms: _371  and  _374
REMARK  155  A    between atoms: _374  and  _375
REMARK  156  A    between atoms: _380  and  _381
REMARK  157  A    between atoms: _383  and  _385
REMARK  158  A    between atoms: _385  and  _386
REMARK  159  A    between atoms: _385  and  _388
REMARK  160  A    between atoms: _388  and  _389
REMARK  161  A    between atoms: _395  and  _397
REMARK  162  A    between atoms: _397  and  _398
REMARK  163  A    between atoms: _397  and  _400
REMARK  164  A    between atoms: _400  and  _401
REMARK  165  A    between atoms: _404  and  _406
REMARK  166  A    between atoms: _406  and  _407
REMARK  167  A    between atoms: _406  and  _409
REMARK  168  A    between atoms: _409  and  _410
REMARK  169  A    between atoms: _413  and  _415
REMARK  170  A    between atoms: _415  and  _416
REMARK  171  A    between atoms: _418  and  _420
REMARK  172  A    between atoms: _420  and  _421
REMARK  173  A    between atoms: _420  and  _423
REMARK  174  A    between atoms: _423  and  _424
REMARK  175  A    between atoms: _427  and  _429
REMARK  176  A    between atoms: _429  and  _430
REMARK  177  A    between atoms: _429  and  _432
REMARK  178  A    between atoms: _432  and  _433
REMARK  179  A    between atoms: _436  and  _438
REMARK  180  A    between atoms: _438  and  _439
REMARK  181  A    between atoms: _438  and  _441
REMARK  182  A    between atoms: _441  and  _442
REMARK  183  A    between atoms: _447  and  _449
REMARK  184  A    between atoms: _449  and  _450
REMARK  185  A    between atoms: _449  and  _452
REMARK  186  A    between atoms: _452  and  _453
REMARK  187  A    between atoms: _456  and  _458
REMARK  188  A    between atoms: _458  and  _459
REMARK  189  A    between atoms: _458  and  _461
REMARK  190  A    between atoms: _461  and  _462
REMARK  191  A    between atoms: _465  and  _467
REMARK  192  A    between atoms: _467  and  _468
REMARK  193  A    between atoms: _470  and  _472
REMARK  194  A    between atoms: _472  and  _473
REMARK  195  A    between atoms: _472  and  _475
REMARK  196  A    between atoms: _475  and  _476
REMARK  197  A    between atoms: _476  and  _477
REMARK  198  A    between atoms: _477  and  _478
REMARK  199  A    between atoms: _487  and  _489
REMARK  200  A    between atoms: _489  and  _490
REMARK  201  A    between atoms: _492  and  _494
REMARK  202  A    between atoms: _494  and  _495
REMARK  203  A    between atoms: _494  and  _497
REMARK  204  A    between atoms: _497  and  _498
REMARK  205  A    between atoms: _501  and  _503
REMARK  206  A    between atoms: _503  and  _504
REMARK  207  A    between atoms: _503  and  _512
REMARK  208  A    between atoms: _504  and  _505
REMARK  209  A    between atoms: _505  and  _506
REMARK  210  A    between atoms: _506  and  _507
REMARK  211  A    between atoms: _507  and  _508
REMARK  212  A    between atoms: _514  and  _516
REMARK  213  A    between atoms: _516  and  _517
REMARK  214  A    between atoms: _516  and  _519
REMARK  215  A    between atoms: _519  and  _520
REMARK  216  A    between atoms: _525  and  _527
REMARK  217  A    between atoms: _527  and  _528
REMARK  218  A    between atoms: _527  and  _530
REMARK  219  A    between atoms: _530  and  _531
REMARK  220  A    between atoms: _531  and  _532
REMARK  221  A    between atoms: _534  and  _536
REMARK  222  A    between atoms: _536  and  _537
REMARK  223  A    between atoms: _540  and  _542
REMARK  224  A    between atoms: _542  and  _543
REMARK  225  A    between atoms: _542  and  _545
REMARK  226  A    between atoms: _548  and  _550
REMARK  227  A    between atoms: _550  and  _551
REMARK  228  A    between atoms: _550  and  _553
REMARK  229  A    between atoms: _553  and  _554
REMARK  230  A    between atoms: _554  and  _555
REMARK  231  A    between atoms: _560  and  _562
REMARK  232  A    between atoms: _562  and  _563
REMARK  233  A    between atoms: _562  and  _565
REMARK  234  A    between atoms: _565  and  _566
REMARK                            x       y       z     vdW  Elec       q    Type
REMARK                         _______ _______ _______ _____ _____    ______ ____
ROOT
ATOM      1  O   HOH     1      41.766 -44.307   0.636  0.00  0.00    +0.000 OA
ENDROOT
TORSDOF 0
REMARK  Name = ../refined-set-2016/4fut/4fut_pocket.pdb
REMARK  234 active torsions:
REMARK  status: ('A' for Active; 'I' for Inactive)
REMARK    1  A    between atoms: _1  and  _3
REMARK    2  A    between atoms: _3  and  _4
REMARK    3  A    between atoms: _3  and  _6
REMARK    4  A    between atoms: _6  and  _7
REMARK    5  A    between atoms: _12  and  _13
REMARK    6  A    between atoms: _15  and  _17
REMARK    7  A    between atoms: _17  and  _18
REMARK    8  A    between atoms: _17  and  _20
REMARK    9  A    between atoms: _20  and  _21
REMARK   10  A    between atoms: _24  and  _26
REMARK   11  A    between atoms: _26  and  _27
REMARK   12  A    between atoms: _26  and  _29
REMARK   13  A    between atoms: _29  and  _30
REMARK   14  A    between atoms: _35  and  _36
REMARK   15  A    between atoms: _38  and  _40
REMARK   16  A    between atoms: _40  and  _41
REMARK   17  A    between atoms: _40  and  _43
REMARK   18  A    between atoms: _43  and  _44
REMARK   19  A    between atoms: _47  and  _49
REMARK   20  A    between atoms: _49  and  _50
REMARK   21  A    between atoms: _49  and  _52
REMARK   22  A    between atoms: _52  and  _53
REMARK   23  A    between atoms: _55  and  _57
REMARK   24  A    between atoms: _57  and  _58
REMARK   25  A    between atoms: _60  and  _62
REMARK   26  A    between atoms: _62  and  _63
REMARK   27  A    between atoms: _62  and  _65
REMARK   28  A    between atoms: _65  and  _66
REMARK   29  A    between atoms: _69  and  _71
REMARK   30  A    between atoms: _71  and  _72
REMARK   31  A    between atoms: _71  and  _74
REMARK   32  A    between atoms: _74  and  _75
REMARK   33  A    between atoms: _78  and  _80
REMARK   34  A    between atoms: _80  and  _81
REMARK   35  A    between atoms: _83  and  _85
REMARK   36  A    between atoms: _85  and  _86
REMARK   37  A    between atoms: _85  and  _88
REMARK   38  A    between atoms: _88  and  _89
REMARK   39  A    between atoms: _89  and  _90
REMARK   40  A    between atoms: _90  and  _91
REMARK   41  A    between atoms: _100  and  _102
REMARK   42  A    between atoms: _102  and  _103
REMARK   43  A    between atoms: _102  and  _105
REMARK   44  A    between atoms: _105  and  _106
REMARK   45  A    between atoms: _108  and  _110
REMARK   46  A    between atoms: _110  and  _111
REMARK   47  A    between atoms: _110  and  _119
REMARK   48  A    between atoms: _111  and  _112
REMARK   49  A    between atoms: _112  and  _113
REMARK   50  A    between atoms: _113  and  _114
REMARK   51  A    between atoms: _114  and  _115
REMARK   52  A    between atoms: _121  and  _123
REMARK   53  A    between atoms: _123  and  _124
REMARK   54  A    between atoms: _123  and  _126
REMARK   55  A    between atoms: _126  and  _127
REMARK   56  A    between atoms: _132  and  _134
REMARK   57  A    between atoms: _134  and  _135
REMARK   58  A    between atoms: _134  and  _137
REMARK   59  A    between atoms: _137  and  _138
REMARK   60  A    between atoms: _141  and  _143
REMARK   61  A    between atoms: _143  and  _144
REMARK   62  A    between atoms: _143  and  _146
REMARK   63  A    between atoms: _146  and  _147
REMARK   64  A    between atoms: _153  and  _154
REMARK   65  A    between atoms: _159  and  _161
REMARK   66  A    between atoms: _161  and  _162
REMARK   67  A    between atoms: _161  and  _164
REMARK   68  A    between atoms: _164  and  _165
REMARK   69  A    between atoms: _167  and  _169
REMARK   70  A    between atoms: _169  and  _170
REMARK   71  A    between atoms: _172  and  _174
REMARK   72  A    between atoms: _174  and  _175
REMARK   73  A    between atoms: _174  and  _177
REMARK   74  A    between atoms: _177  and  _178
REMARK   75  A    between atoms: _180  and  _182
REMARK   76  A    between atoms: _182  and  _183
REMARK   77  A    between atoms: _187  and  _188
REMARK   78  A    between atoms: _193  and  _195
REMARK   79  A    between atoms: _195  and  _196
REMARK   80  A    between atoms: _195  and  _198
REMARK   81  A    between atoms: _198  and  _199
REMARK   82  A    between atoms: _202  and  _204
REMARK   83  A    between atoms: _204  and  _205
REMARK   84  A    between atoms: _204  and  _207
REMARK   85  A    between atoms: _207  and  _208
REMARK   86  A    between atoms: _211  and  _213
REMARK   87  A    between atoms: _213  and  _214
REMARK   88  A    between atoms: _213  and  _216
REMARK   89  A    between atoms: _216  and  _217
REMARK   90  A    between atoms: _217  and  _218
REMARK   91  A    between atoms: _221  and  _223
REMARK   92  A    between atoms: _223  and  _224
REMARK   93  A    between atoms: _223  and  _226
REMARK   94  A    between atoms: _226  and  _227
REMARK   95  A    between atoms: _227  and  _228
REMARK   96  A    between atoms: _228  and  _229
REMARK   97  A    between atoms: _238  and  _240
REMARK   98  A    between atoms: _240  and  _241
REMARK   99  A    between atoms: _240  and  _243
REMARK  100  A    between atoms: _243  and  _244
REMARK  101  A    between atoms: _249  and  _250
REMARK  102  A    between atoms: _252  and  _254
REMARK  103  A    between atoms: _254  and  _255
REMARK  104  A    between atoms: _257  and  _259
REMARK  105  A    between atoms: _259  and  _260
REMARK  106  A    between atoms: _259  and  _262
REMARK  107  A    between atoms: _262  and  _263
REMARK  108  A    between atoms: _263  and  _264
REMARK  109  A    between atoms: _266  and  _268
REMARK  110  A    between atoms: _268  and  _269
REMARK  111  A    between atoms: _268  and  _271
REMARK  112  A    between atoms: _271  and  _272
REMARK  113  A    between atoms: _275  and  _277
REMARK  114  A    between atoms: _277  and  _278
REMARK  115  A    between atoms: _277  and  _280
REMARK  116  A    between atoms: _280  and  _281
REMARK  117  A    between atoms: _281  and  _282
REMARK  118  A    between atoms: _285  and  _287
REMARK  119  A    between atoms: _287  and  _288
REMARK  120  A    between atoms: _287  and  _290
REMARK  121  A    between atoms: _290  and  _291
REMARK  122  A    between atoms: _294  and  _296
REMARK  123  A    between atoms: _296  and  _297
REMARK  124  A    between atoms: _296  and  _299
REMARK  125  A    between atoms: _299  and  _300
REMARK  126  A    between atoms: _305  and  _307
REMARK  127  A    between atoms: _307  and  _308
REMARK  128  A    between atoms: _307  and  _310
REMARK  129  A    between atoms: _310  and  _311
REMARK  130  A    between atoms: _311  and  _312
REMARK  131  A    between atoms: _314  and  _316
REMARK  132  A    between atoms: _316  and  _317
REMARK  133  A    between atoms: _316  and  _319
REMARK  134  A    between atoms: _319  and  _320
REMARK  135  A    between atoms: _325  and  _327
REMARK  136  A    between atoms: _327  and  _328
REMARK  137  A    between atoms: _327  and  _330
REMARK  138  A    between atoms: _330  and  _331
REMARK  139  A    between atoms: _334  and  _336
REMARK  140  A    between atoms: _336  and  _337
REMARK  141  A    between atoms: _336  and  _339
REMARK  142  A    between atoms: _339  and  _340
REMARK  143  A    between atoms: _345  and  _347
REMARK  144  A    between atoms: _347  and  _348
REMARK  145  A    between atoms: _350  and  _352
REMARK  146  A    between atoms: _352  and  _353
REMARK  147  A    between atoms: _356  and  _358
REMARK  148  A    between atoms: _358  and  _359
REMARK  149  A    between atoms: _358  and  _361
REMARK  150  A    between atoms: _364  and  _366
REMARK  151  A    between atoms: _366  and  _367
REMARK  152  A    between atoms: _369  and  _371
REMARK  153  A    between atoms: _371  and  _372
REMARK  154  A    between atoms: _371  and  _374
REMARK  155  A    between atoms: _374  and  _375
REMARK  156  A    between atoms: _380  and  _381
REMARK  157  A    between atoms: _383  and  _385
REMARK  158  A    between atoms: _385  and  _386
REMARK  159  A    between atoms: _385  and  _388
REMARK  160  A    between atoms: _388  and  _389
REMARK  161  A    between atoms: _395  and  _397
REMARK  162  A    between atoms: _397  and  _398
REMARK  163  A    between atoms: _397  and  _400
REMARK  164  A    between atoms: _400  and  _401
REMARK  165  A    between atoms: _404  and  _406
REMARK  166  A    between atoms: _406  and  _407
REMARK  167  A    between atoms: _406  and  _409
REMARK  168  A    between atoms: _409  and  _410
REMARK  169  A    between atoms: _413  and  _415
REMARK  170  A    between atoms: _415  and  _416
REMARK  171  A    between atoms: _418  and  _420
REMARK  172  A    between atoms: _420  and  _421
REMARK  173  A    between atoms: _420  and  _423
REMARK  174  A    between atoms: _423  and  _424
REMARK  175  A    between atoms: _427  and  _429
REMARK  176  A    between atoms: _429  and  _430
REMARK  177  A    between atoms: _429  and  _432
REMARK  178  A    between atoms: _432  and  _433
REMARK  179  A    between atoms: _436  and  _438
REMARK  180  A    between atoms: _438  and  _439
REMARK  181  A    between atoms: _438  and  _441
REMARK  182  A    between atoms: _441  and  _442
REMARK  183  A    between atoms: _447  and  _449
REMARK  184  A    between atoms: _449  and  _450
REMARK  185  A    between atoms: _449  and  _452
REMARK  186  A    between atoms: _452  and  _453
REMARK  187  A    between atoms: _456  and  _458
REMARK  188  A    between atoms: _458  and  _459
REMARK  189  A    between atoms: _458  and  _461
REMARK  190  A    between atoms: _461  and  _462
REMARK  191  A    between atoms: _465  and  _467
REMARK  192  A    between atoms: _467  and  _468
REMARK  193  A    between atoms: _470  and  _472
REMARK  194  A    between atoms: _472  and  _473
REMARK  195  A    between atoms: _472  and  _475
REMARK  196  A    between atoms: _475  and  _476
REMARK  197  A    between atoms: _476  and  _477
REMARK  198  A    between atoms: _477  and  _478
REMARK  199  A    between atoms: _487  and  _489
REMARK  200  A    between atoms: _489  and  _490
REMARK  201  A    between atoms: _492  and  _494
REMARK  202  A    between atoms: _494  and  _495
REMARK  203  A    between atoms: _494  and  _497
REMARK  204  A    between atoms: _497  and  _498
REMARK  205  A    between atoms: _501  and  _503
REMARK  206  A    between atoms: _503  and  _504
REMARK  207  A    between atoms: _503  and  _512
REMARK  208  A    between atoms: _504  and  _505
REMARK  209  A    between atoms: _505  and  _506
REMARK  210  A    between atoms: _506  and  _507
REMARK  211  A    between atoms: _507  and  _508
REMARK  212  A    between atoms: _514  and  _516
REMARK  213  A    between atoms: _516  and  _517
REMARK  214  A    between atoms: _516  and  _519
REMARK  215  A    between atoms: _519  and  _520
REMARK  216  A    between atoms: _525  and  _527
REMARK  217  A    between atoms: _527  and  _528
REMARK  218  A    between atoms: _527  and  _530
REMARK  219  A    between atoms: _530  and  _531
REMARK  220  A    between atoms: _531  and  _532
REMARK  221  A    between atoms: _534  and  _536
REMARK  222  A    between atoms: _536  and  _537
REMARK  223  A    between atoms: _540  and  _542
REMARK  224  A    between atoms: _542  and  _543
REMARK  225  A    between atoms: _542  and  _545
REMARK  226  A    between atoms: _548  and  _550
REMARK  227  A    between atoms: _550  and  _551
REMARK  228  A    between atoms: _550  and  _553
REMARK  229  A    between atoms: _553  and  _554
REMARK  230  A    between atoms: _554  and  _555
REMARK  231  A    between atoms: _560  and  _562
REMARK  232  A    between atoms: _562  and  _563
REMARK  233  A    between atoms: _562  and  _565
REMARK  234  A    between atoms: _565  and  _566
REMARK                            x       y       z     vdW  Elec       q    Type
REMARK                         _______ _______ _______ _____ _____    ______ ____
ROOT
ATOM      1  O   HOH     1      39.714 -45.624   2.671  0.00  0.00    +0.000 OA
ENDROOT
TORSDOF 0
REMARK  Name = ../refined-set-2016/4fut/4fut_pocket.pdb
REMARK  234 active torsions:
REMARK  status: ('A' for Active; 'I' for Inactive)
REMARK    1  A    between atoms: _1  and  _3
REMARK    2  A    between atoms: _3  and  _4
REMARK    3  A    between atoms: _3  and  _6
REMARK    4  A    between atoms: _6  and  _7
REMARK    5  A    between atoms: _12  and  _13
REMARK    6  A    between atoms: _15  and  _17
REMARK    7  A    between atoms: _17  and  _18
REMARK    8  A    between atoms: _17  and  _20
REMARK    9  A    between atoms: _20  and  _21
REMARK   10  A    between atoms: _24  and  _26
REMARK   11  A    between atoms: _26  and  _27
REMARK   12  A    between atoms: _26  and  _29
REMARK   13  A    between atoms: _29  and  _30
REMARK   14  A    between atoms: _35  and  _36
REMARK   15  A    between atoms: _38  and  _40
REMARK   16  A    between atoms: _40  and  _41
REMARK   17  A    between atoms: _40  and  _43
REMARK   18  A    between atoms: _43  and  _44
REMARK   19  A    between atoms: _47  and  _49
REMARK   20  A    between atoms: _49  and  _50
REMARK   21  A    between atoms: _49  and  _52
REMARK   22  A    between atoms: _52  and  _53
REMARK   23  A    between atoms: _55  and  _57
REMARK   24  A    between atoms: _57  and  _58
REMARK   25  A    between atoms: _60  and  _62
REMARK   26  A    between atoms: _62  and  _63
REMARK   27  A    between atoms: _62  and  _65
REMARK   28  A    between atoms: _65  and  _66
REMARK   29  A    between atoms: _69  and  _71
REMARK   30  A    between atoms: _71  and  _72
REMARK   31  A    between atoms: _71  and  _74
REMARK   32  A    between atoms: _74  and  _75
REMARK   33  A    between atoms: _78  and  _80
REMARK   34  A    between atoms: _80  and  _81
REMARK   35  A    between atoms: _83  and  _85
REMARK   36  A    between atoms: _85  and  _86
REMARK   37  A    between atoms: _85  and  _88
REMARK   38  A    between atoms: _88  and  _89
REMARK   39  A    between atoms: _89  and  _90
REMARK   40  A    between atoms: _90  and  _91
REMARK   41  A    between atoms: _100  and  _102
REMARK   42  A    between atoms: _102  and  _103
REMARK   43  A    between atoms: _102  and  _105
REMARK   44  A    between atoms: _105  and  _106
REMARK   45  A    between atoms: _108  and  _110
REMARK   46  A    between atoms: _110  and  _111
REMARK   47  A    between atoms: _110  and  _119
REMARK   48  A    between atoms: _111  and  _112
REMARK   49  A    between atoms: _112  and  _113
REMARK   50  A    between atoms: _113  and  _114
REMARK   51  A    between atoms: _114  and  _115
REMARK   52  A    between atoms: _121  and  _123
REMARK   53  A    between atoms: _123  and  _124
REMARK   54  A    between atoms: _123  and  _126
REMARK   55  A    between atoms: _126  and  _127
REMARK   56  A    between atoms: _132  and  _134
REMARK   57  A    between atoms: _134  and  _135
REMARK   58  A    between atoms: _134  and  _137
REMARK   59  A    between atoms: _137  and  _138
REMARK   60  A    between atoms: _141  and  _143
REMARK   61  A    between atoms: _143  and  _144
REMARK   62  A    between atoms: _143  and  _146
REMARK   63  A    between atoms: _146  and  _147
REMARK   64  A    between atoms: _153  and  _154
REMARK   65  A    between atoms: _159  and  _161
REMARK   66  A    between atoms: _161  and  _162
REMARK   67  A    between atoms: _161  and  _164
REMARK   68  A    between atoms: _164  and  _165
REMARK   69  A    between atoms: _167  and  _169
REMARK   70  A    between atoms: _169  and  _170
REMARK   71  A    between atoms: _172  and  _174
REMARK   72  A    between atoms: _174  and  _175
REMARK   73  A    between atoms: _174  and  _177
REMARK   74  A    between atoms: _177  and  _178
REMARK   75  A    between atoms: _180  and  _182
REMARK   76  A    between atoms: _182  and  _183
REMARK   77  A    between atoms: _187  and  _188
REMARK   78  A    between atoms: _193  and  _195
REMARK   79  A    between atoms: _195  and  _196
REMARK   80  A    between atoms: _195  and  _198
REMARK   81  A    between atoms: _198  and  _199
REMARK   82  A    between atoms: _202  and  _204
REMARK   83  A    between atoms: _204  and  _205
REMARK   84  A    between atoms: _204  and  _207
REMARK   85  A    between atoms: _207  and  _208
REMARK   86  A    between atoms: _211  and  _213
REMARK   87  A    between atoms: _213  and  _214
REMARK   88  A    between atoms: _213  and  _216
REMARK   89  A    between atoms: _216  and  _217
REMARK   90  A    between atoms: _217  and  _218
REMARK   91  A    between atoms: _221  and  _223
REMARK   92  A    between atoms: _223  and  _224
REMARK   93  A    between atoms: _223  and  _226
REMARK   94  A    between atoms: _226  and  _227
REMARK   95  A    between atoms: _227  and  _228
REMARK   96  A    between atoms: _228  and  _229
REMARK   97  A    between atoms: _238  and  _240
REMARK   98  A    between atoms: _240  and  _241
REMARK   99  A    between atoms: _240  and  _243
REMARK  100  A    between atoms: _243  and  _244
REMARK  101  A    between atoms: _249  and  _250
REMARK  102  A    between atoms: _252  and  _254
REMARK  103  A    between atoms: _254  and  _255
REMARK  104  A    between atoms: _257  and  _259
REMARK  105  A    between atoms: _259  and  _260
REMARK  106  A    between atoms: _259  and  _262
REMARK  107  A    between atoms: _262  and  _263
REMARK  108  A    between atoms: _263  and  _264
REMARK  109  A    between atoms: _266  and  _268
REMARK  110  A    between atoms: _268  and  _269
REMARK  111  A    between atoms: _268  and  _271
REMARK  112  A    between atoms: _271  and  _272
REMARK  113  A    between atoms: _275  and  _277
REMARK  114  A    between atoms: _277  and  _278
REMARK  115  A    between atoms: _277  and  _280
REMARK  116  A    between atoms: _280  and  _281
REMARK  117  A    between atoms: _281  and  _282
REMARK  118  A    between atoms: _285  and  _287
REMARK  119  A    between atoms: _287  and  _288
REMARK  120  A    between atoms: _287  and  _290
REMARK  121  A    between atoms: _290  and  _291
REMARK  122  A    between atoms: _294  and  _296
REMARK  123  A    between atoms: _296  and  _297
REMARK  124  A    between atoms: _296  and  _299
REMARK  125  A    between atoms: _299  and  _300
REMARK  126  A    between atoms: _305  and  _307
REMARK  127  A    between atoms: _307  and  _308
REMARK  128  A    between atoms: _307  and  _310
REMARK  129  A    between atoms: _310  and  _311
REMARK  130  A    between atoms: _311  and  _312
REMARK  131  A    between atoms: _314  and  _316
REMARK  132  A    between atoms: _316  and  _317
REMARK  133  A    between atoms: _316  and  _319
REMARK  134  A    between atoms: _319  and  _320
REMARK  135  A    between atoms: _325  and  _327
REMARK  136  A    between atoms: _327  and  _328
REMARK  137  A    between atoms: _327  and  _330
REMARK  138  A    between atoms: _330  and  _331
REMARK  139  A    between atoms: _334  and  _336
REMARK  140  A    between atoms: _336  and  _337
REMARK  141  A    between atoms: _336  and  _339
REMARK  142  A    between atoms: _339  and  _340
REMARK  143  A    between atoms: _345  and  _347
REMARK  144  A    between atoms: _347  and  _348
REMARK  145  A    between atoms: _350  and  _352
REMARK  146  A    between atoms: _352  and  _353
REMARK  147  A    between atoms: _356  and  _358
REMARK  148  A    between atoms: _358  and  _359
REMARK  149  A    between atoms: _358  and  _361
REMARK  150  A    between atoms: _364  and  _366
REMARK  151  A    between atoms: _366  and  _367
REMARK  152  A    between atoms: _369  and  _371
REMARK  153  A    between atoms: _371  and  _372
REMARK  154  A    between atoms: _371  and  _374
REMARK  155  A    between atoms: _374  and  _375
REMARK  156  A    between atoms: _380  and  _381
REMARK  157  A    between atoms: _383  and  _385
REMARK  158  A    between atoms: _385  and  _386
REMARK  159  A    between atoms: _385  and  _388
REMARK  160  A    between atoms: _388  and  _389
REMARK  161  A    between atoms: _395  and  _397
REMARK  162  A    between atoms: _397  and  _398
REMARK  163  A    between atoms: _397  and  _400
REMARK  164  A    between atoms: _400  and  _401
REMARK  165  A    between atoms: _404  and  _406
REMARK  166  A    between atoms: _406  and  _407
REMARK  167  A    between atoms: _406  and  _409
REMARK  168  A    between atoms: _409  and  _410
REMARK  169  A    between atoms: _413  and  _415
REMARK  170  A    between atoms: _415  and  _416
REMARK  171  A    between atoms: _418  and  _420
REMARK  172  A    between atoms: _420  and  _421
REMARK  173  A    between atoms: _420  and  _423
REMARK  174  A    between atoms: _423  and  _424
REMARK  175  A    between atoms: _427  and  _429
REMARK  176  A    between atoms: _429  and  _430
REMARK  177  A    between atoms: _429  and  _432
REMARK  178  A    between atoms: _432  and  _433
REMARK  179  A    between atoms: _436  and  _438
REMARK  180  A    between atoms: _438  and  _439
REMARK  181  A    between atoms: _438  and  _441
REMARK  182  A    between atoms: _441  and  _442
REMARK  183  A    between atoms: _447  and  _449
REMARK  184  A    between atoms: _449  and  _450
REMARK  185  A    between atoms: _449  and  _452
REMARK  186  A    between atoms: _452  and  _453
REMARK  187  A    between atoms: _456  and  _458
REMARK  188  A    between atoms: _458  and  _459
REMARK  189  A    between atoms: _458  and  _461
REMARK  190  A    between atoms: _461  and  _462
REMARK  191  A    between atoms: _465  and  _467
REMARK  192  A    between atoms: _467  and  _468
REMARK  193  A    between atoms: _470  and  _472
REMARK  194  A    between atoms: _472  and  _473
REMARK  195  A    between atoms: _472  and  _475
REMARK  196  A    between atoms: _475  and  _476
REMARK  197  A    between atoms: _476  and  _477
REMARK  198  A    between atoms: _477  and  _478
REMARK  199  A    between atoms: _487  and  _489
REMARK  200  A    between atoms: _489  and  _490
REMARK  201  A    between atoms: _492  and  _494
REMARK  202  A    between atoms: _494  and  _495
REMARK  203  A    between atoms: _494  and  _497
REMARK  204  A    between atoms: _497  and  _498
REMARK  205  A    between atoms: _501  and  _503
REMARK  206  A    between atoms: _503  and  _504
REMARK  207  A    between atoms: _503  and  _512
REMARK  208  A    between atoms: _504  and  _505
REMARK  209  A    between atoms: _505  and  _506
REMARK  210  A    between atoms: _506  and  _507
REMARK  211  A    between atoms: _507  and  _508
REMARK  212  A    between atoms: _514  and  _516
REMARK  213  A    between atoms: _516  and  _517
REMARK  214  A    between atoms: _516  and  _519
REMARK  215  A    between atoms: _519  and  _520
REMARK  216  A    between atoms: _525  and  _527
REMARK  217  A    between atoms: _527  and  _528
REMARK  218  A    between atoms: _527  and  _530
REMARK  219  A    between atoms: _530  and  _531
REMARK  220  A    between atoms: _531  and  _532
REMARK  221  A    between atoms: _534  and  _536
REMARK  222  A    between atoms: _536  and  _537
REMARK  223  A    between atoms: _540  and  _542
REMARK  224  A    between atoms: _542  and  _543
REMARK  225  A    between atoms: _542  and  _545
REMARK  226  A    between atoms: _548  and  _550
REMARK  227  A    between atoms: _550  and  _551
REMARK  228  A    between atoms: _550  and  _553
REMARK  229  A    between atoms: _553  and  _554
REMARK  230  A    between atoms: _554  and  _555
REMARK  231  A    between atoms: _560  and  _562
REMARK  232  A    between atoms: _562  and  _563
REMARK  233  A    between atoms: _562  and  _565
REMARK  234  A    between atoms: _565  and  _566
REMARK                            x       y       z     vdW  Elec       q    Type
REMARK                         _______ _______ _______ _____ _____    ______ ____
ROOT
ATOM      1  O   HOH     1      37.395 -48.456   3.667  0.00  0.00    +0.000 OA
ENDROOT
TORSDOF 0
REMARK  Name = ../refined-set-2016/4fut/4fut_pocket.pdb
REMARK  234 active torsions:
REMARK  status: ('A' for Active; 'I' for Inactive)
REMARK    1  A    between atoms: _1  and  _3
REMARK    2  A    between atoms: _3  and  _4
REMARK    3  A    between atoms: _3  and  _6
REMARK    4  A    between atoms: _6  and  _7
REMARK    5  A    between atoms: _12  and  _13
REMARK    6  A    between atoms: _15  and  _17
REMARK    7  A    between atoms: _17  and  _18
REMARK    8  A    between atoms: _17  and  _20
REMARK    9  A    between atoms: _20  and  _21
REMARK   10  A    between atoms: _24  and  _26
REMARK   11  A    between atoms: _26  and  _27
REMARK   12  A    between atoms: _26  and  _29
REMARK   13  A    between atoms: _29  and  _30
REMARK   14  A    between atoms: _35  and  _36
REMARK   15  A    between atoms: _38  and  _40
REMARK   16  A    between atoms: _40  and  _41
REMARK   17  A    between atoms: _40  and  _43
REMARK   18  A    between atoms: _43  and  _44
REMARK   19  A    between atoms: _47  and  _49
REMARK   20  A    between atoms: _49  and  _50
REMARK   21  A    between atoms: _49  and  _52
REMARK   22  A    between atoms: _52  and  _53
REMARK   23  A    between atoms: _55  and  _57
REMARK   24  A    between atoms: _57  and  _58
REMARK   25  A    between atoms: _60  and  _62
REMARK   26  A    between atoms: _62  and  _63
REMARK   27  A    between atoms: _62  and  _65
REMARK   28  A    between atoms: _65  and  _66
REMARK   29  A    between atoms: _69  and  _71
REMARK   30  A    between atoms: _71  and  _72
REMARK   31  A    between atoms: _71  and  _74
REMARK   32  A    between atoms: _74  and  _75
REMARK   33  A    between atoms: _78  and  _80
REMARK   34  A    between atoms: _80  and  _81
REMARK   35  A    between atoms: _83  and  _85
REMARK   36  A    between atoms: _85  and  _86
REMARK   37  A    between atoms: _85  and  _88
REMARK   38  A    between atoms: _88  and  _89
REMARK   39  A    between atoms: _89  and  _90
REMARK   40  A    between atoms: _90  and  _91
REMARK   41  A    between atoms: _100  and  _102
REMARK   42  A    between atoms: _102  and  _103
REMARK   43  A    between atoms: _102  and  _105
REMARK   44  A    between atoms: _105  and  _106
REMARK   45  A    between atoms: _108  and  _110
REMARK   46  A    between atoms: _110  and  _111
REMARK   47  A    between atoms: _110  and  _119
REMARK   48  A    between atoms: _111  and  _112
REMARK   49  A    between atoms: _112  and  _113
REMARK   50  A    between atoms: _113  and  _114
REMARK   51  A    between atoms: _114  and  _115
REMARK   52  A    between atoms: _121  and  _123
REMARK   53  A    between atoms: _123  and  _124
REMARK   54  A    between atoms: _123  and  _126
REMARK   55  A    between atoms: _126  and  _127
REMARK   56  A    between atoms: _132  and  _134
REMARK   57  A    between atoms: _134  and  _135
REMARK   58  A    between atoms: _134  and  _137
REMARK   59  A    between atoms: _137  and  _138
REMARK   60  A    between atoms: _141  and  _143
REMARK   61  A    between atoms: _143  and  _144
REMARK   62  A    between atoms: _143  and  _146
REMARK   63  A    between atoms: _146  and  _147
REMARK   64  A    between atoms: _153  and  _154
REMARK   65  A    between atoms: _159  and  _161
REMARK   66  A    between atoms: _161  and  _162
REMARK   67  A    between atoms: _161  and  _164
REMARK   68  A    between atoms: _164  and  _165
REMARK   69  A    between atoms: _167  and  _169
REMARK   70  A    between atoms: _169  and  _170
REMARK   71  A    between atoms: _172  and  _174
REMARK   72  A    between atoms: _174  and  _175
REMARK   73  A    between atoms: _174  and  _177
REMARK   74  A    between atoms: _177  and  _178
REMARK   75  A    between atoms: _180  and  _182
REMARK   76  A    between atoms: _182  and  _183
REMARK   77  A    between atoms: _187  and  _188
REMARK   78  A    between atoms: _193  and  _195
REMARK   79  A    between atoms: _195  and  _196
REMARK   80  A    between atoms: _195  and  _198
REMARK   81  A    between atoms: _198  and  _199
REMARK   82  A    between atoms: _202  and  _204
REMARK   83  A    between atoms: _204  and  _205
REMARK   84  A    between atoms: _204  and  _207
REMARK   85  A    between atoms: _207  and  _208
REMARK   86  A    between atoms: _211  and  _213
REMARK   87  A    between atoms: _213  and  _214
REMARK   88  A    between atoms: _213  and  _216
REMARK   89  A    between atoms: _216  and  _217
REMARK   90  A    between atoms: _217  and  _218
REMARK   91  A    between atoms: _221  and  _223
REMARK   92  A    between atoms: _223  and  _224
REMARK   93  A    between atoms: _223  and  _226
REMARK   94  A    between atoms: _226  and  _227
REMARK   95  A    between atoms: _227  and  _228
REMARK   96  A    between atoms: _228  and  _229
REMARK   97  A    between atoms: _238  and  _240
REMARK   98  A    between atoms: _240  and  _241
REMARK   99  A    between atoms: _240  and  _243
REMARK  100  A    between atoms: _243  and  _244
REMARK  101  A    between atoms: _249  and  _250
REMARK  102  A    between atoms: _252  and  _254
REMARK  103  A    between atoms: _254  and  _255
REMARK  104  A    between atoms: _257  and  _259
REMARK  105  A    between atoms: _259  and  _260
REMARK  106  A    between atoms: _259  and  _262
REMARK  107  A    between atoms: _262  and  _263
REMARK  108  A    between atoms: _263  and  _264
REMARK  109  A    between atoms: _266  and  _268
REMARK  110  A    between atoms: _268  and  _269
REMARK  111  A    between atoms: _268  and  _271
REMARK  112  A    between atoms: _271  and  _272
REMARK  113  A    between atoms: _275  and  _277
REMARK  114  A    between atoms: _277  and  _278
REMARK  115  A    between atoms: _277  and  _280
REMARK  116  A    between atoms: _280  and  _281
REMARK  117  A    between atoms: _281  and  _282
REMARK  118  A    between atoms: _285  and  _287
REMARK  119  A    between atoms: _287  and  _288
REMARK  120  A    between atoms: _287  and  _290
REMARK  121  A    between atoms: _290  and  _291
REMARK  122  A    between atoms: _294  and  _296
REMARK  123  A    between atoms: _296  and  _297
REMARK  124  A    between atoms: _296  and  _299
REMARK  125  A    between atoms: _299  and  _300
REMARK  126  A    between atoms: _305  and  _307
REMARK  127  A    between atoms: _307  and  _308
REMARK  128  A    between atoms: _307  and  _310
REMARK  129  A    between atoms: _310  and  _311
REMARK  130  A    between atoms: _311  and  _312
REMARK  131  A    between atoms: _314  and  _316
REMARK  132  A    between atoms: _316  and  _317
REMARK  133  A    between atoms: _316  and  _319
REMARK  134  A    between atoms: _319  and  _320
REMARK  135  A    between atoms: _325  and  _327
REMARK  136  A    between atoms: _327  and  _328
REMARK  137  A    between atoms: _327  and  _330
REMARK  138  A    between atoms: _330  and  _331
REMARK  139  A    between atoms: _334  and  _336
REMARK  140  A    between atoms: _336  and  _337
REMARK  141  A    between atoms: _336  and  _339
REMARK  142  A    between atoms: _339  and  _340
REMARK  143  A    between atoms: _345  and  _347
REMARK  144  A    between atoms: _347  and  _348
REMARK  145  A    between atoms: _350  and  _352
REMARK  146  A    between atoms: _352  and  _353
REMARK  147  A    between atoms: _356  and  _358
REMARK  148  A    between atoms: _358  and  _359
REMARK  149  A    between atoms: _358  and  _361
REMARK  150  A    between atoms: _364  and  _366
REMARK  151  A    between atoms: _366  and  _367
REMARK  152  A    between atoms: _369  and  _371
REMARK  153  A    between atoms: _371  and  _372
REMARK  154  A    between atoms: _371  and  _374
REMARK  155  A    between atoms: _374  and  _375
REMARK  156  A    between atoms: _380  and  _381
REMARK  157  A    between atoms: _383  and  _385
REMARK  158  A    between atoms: _385  and  _386
REMARK  159  A    between atoms: _385  and  _388
REMARK  160  A    between atoms: _388  and  _389
REMARK  161  A    between atoms: _395  and  _397
REMARK  162  A    between atoms: _397  and  _398
REMARK  163  A    between atoms: _397  and  _400
REMARK  164  A    between atoms: _400  and  _401
REMARK  165  A    between atoms: _404  and  _406
REMARK  166  A    between atoms: _406  and  _407
REMARK  167  A    between atoms: _406  and  _409
REMARK  168  A    between atoms: _409  and  _410
REMARK  169  A    between atoms: _413  and  _415
REMARK  170  A    between atoms: _415  and  _416
REMARK  171  A    between atoms: _418  and  _420
REMARK  172  A    between atoms: _420  and  _421
REMARK  173  A    between atoms: _420  and  _423
REMARK  174  A    between atoms: _423  and  _424
REMARK  175  A    between atoms: _427  and  _429
REMARK  176  A    between atoms: _429  and  _430
REMARK  177  A    between atoms: _429  and  _432
REMARK  178  A    between atoms: _432  and  _433
REMARK  179  A    between atoms: _436  and  _438
REMARK  180  A    between atoms: _438  and  _439
REMARK  181  A    between atoms: _438  and  _441
REMARK  182  A    between atoms: _441  and  _442
REMARK  183  A    between atoms: _447  and  _449
REMARK  184  A    between atoms: _449  and  _450
REMARK  185  A    between atoms: _449  and  _452
REMARK  186  A    between atoms: _452  and  _453
REMARK  187  A    between atoms: _456  and  _458
REMARK  188  A    between atoms: _458  and  _459
REMARK  189  A    between atoms: _458  and  _461
REMARK  190  A    between atoms: _461  and  _462
REMARK  191  A    between atoms: _465  and  _467
REMARK  192  A    between atoms: _467  and  _468
REMARK  193  A    between atoms: _470  and  _472
REMARK  194  A    between atoms: _472  and  _473
REMARK  195  A    between atoms: _472  and  _475
REMARK  196  A    between atoms: _475  and  _476
REMARK  197  A    between atoms: _476  and  _477
REMARK  198  A    between atoms: _477  and  _478
REMARK  199  A    between atoms: _487  and  _489
REMARK  200  A    between atoms: _489  and  _490
REMARK  201  A    between atoms: _492  and  _494
REMARK  202  A    between atoms: _494  and  _495
REMARK  203  A    between atoms: _494  and  _497
REMARK  204  A    between atoms: _497  and  _498
REMARK  205  A    between atoms: _501  and  _503
REMARK  206  A    between atoms: _503  and  _504
REMARK  207  A    between atoms: _503  and  _512
REMARK  208  A    between atoms: _504  and  _505
REMARK  209  A    between atoms: _505  and  _506
REMARK  210  A    between atoms: _506  and  _507
REMARK  211  A    between atoms: _507  and  _508
REMARK  212  A    between atoms: _514  and  _516
REMARK  213  A    between atoms: _516  and  _517
REMARK  214  A    between atoms: _516  and  _519
REMARK  215  A    between atoms: _519  and  _520
REMARK  216  A    between atoms: _525  and  _527
REMARK  217  A    between atoms: _527  and  _528
REMARK  218  A    between atoms: _527  and  _530
REMARK  219  A    between atoms: _530  and  _531
REMARK  220  A    between atoms: _531  and  _532
REMARK  221  A    between atoms: _534  and  _536
REMARK  222  A    between atoms: _536  and  _537
REMARK  223  A    between atoms: _540  and  _542
REMARK  224  A    between atoms: _542  and  _543
REMARK  225  A    between atoms: _542  and  _545
REMARK  226  A    between atoms: _548  and  _550
REMARK  227  A    between atoms: _550  and  _551
REMARK  228  A    between atoms: _550  and  _553
REMARK  229  A    between atoms: _553  and  _554
REMARK  230  A    between atoms: _554  and  _555
REMARK  231  A    between atoms: _560  and  _562
REMARK  232  A    between atoms: _562  and  _563
REMARK  233  A    between atoms: _562  and  _565
REMARK  234  A    between atoms: _565  and  _566
REMARK                            x       y       z     vdW  Elec       q    Type
REMARK                         _______ _______ _______ _____ _____    ______ ____
ROOT
ATOM      1  O   HOH     1      42.989 -49.850 -11.927  0.00  0.00    +0.000 OA
ENDROOT
TORSDOF 0
REMARK  Name = ../refined-set-2016/4fut/4fut_pocket.pdb
REMARK  234 active torsions:
REMARK  status: ('A' for Active; 'I' for Inactive)
REMARK    1  A    between atoms: _1  and  _3
REMARK    2  A    between atoms: _3  and  _4
REMARK    3  A    between atoms: _3  and  _6
REMARK    4  A    between atoms: _6  and  _7
REMARK    5  A    between atoms: _12  and  _13
REMARK    6  A    between atoms: _15  and  _17
REMARK    7  A    between atoms: _17  and  _18
REMARK    8  A    between atoms: _17  and  _20
REMARK    9  A    between atoms: _20  and  _21
REMARK   10  A    between atoms: _24  and  _26
REMARK   11  A    between atoms: _26  and  _27
REMARK   12  A    between atoms: _26  and  _29
REMARK   13  A    between atoms: _29  and  _30
REMARK   14  A    between atoms: _35  and  _36
REMARK   15  A    between atoms: _38  and  _40
REMARK   16  A    between atoms: _40  and  _41
REMARK   17  A    between atoms: _40  and  _43
REMARK   18  A    between atoms: _43  and  _44
REMARK   19  A    between atoms: _47  and  _49
REMARK   20  A    between atoms: _49  and  _50
REMARK   21  A    between atoms: _49  and  _52
REMARK   22  A    between atoms: _52  and  _53
REMARK   23  A    between atoms: _55  and  _57
REMARK   24  A    between atoms: _57  and  _58
REMARK   25  A    between atoms: _60  and  _62
REMARK   26  A    between atoms: _62  and  _63
REMARK   27  A    between atoms: _62  and  _65
REMARK   28  A    between atoms: _65  and  _66
REMARK   29  A    between atoms: _69  and  _71
REMARK   30  A    between atoms: _71  and  _72
REMARK   31  A    between atoms: _71  and  _74
REMARK   32  A    between atoms: _74  and  _75
REMARK   33  A    between atoms: _78  and  _80
REMARK   34  A    between atoms: _80  and  _81
REMARK   35  A    between atoms: _83  and  _85
REMARK   36  A    between atoms: _85  and  _86
REMARK   37  A    between atoms: _85  and  _88
REMARK   38  A    between atoms: _88  and  _89
REMARK   39  A    between atoms: _89  and  _90
REMARK   40  A    between atoms: _90  and  _91
REMARK   41  A    between atoms: _100  and  _102
REMARK   42  A    between atoms: _102  and  _103
REMARK   43  A    between atoms: _102  and  _105
REMARK   44  A    between atoms: _105  and  _106
REMARK   45  A    between atoms: _108  and  _110
REMARK   46  A    between atoms: _110  and  _111
REMARK   47  A    between atoms: _110  and  _119
REMARK   48  A    between atoms: _111  and  _112
REMARK   49  A    between atoms: _112  and  _113
REMARK   50  A    between atoms: _113  and  _114
REMARK   51  A    between atoms: _114  and  _115
REMARK   52  A    between atoms: _121  and  _123
REMARK   53  A    between atoms: _123  and  _124
REMARK   54  A    between atoms: _123  and  _126
REMARK   55  A    between atoms: _126  and  _127
REMARK   56  A    between atoms: _132  and  _134
REMARK   57  A    between atoms: _134  and  _135
REMARK   58  A    between atoms: _134  and  _137
REMARK   59  A    between atoms: _137  and  _138
REMARK   60  A    between atoms: _141  and  _143
REMARK   61  A    between atoms: _143  and  _144
REMARK   62  A    between atoms: _143  and  _146
REMARK   63  A    between atoms: _146  and  _147
REMARK   64  A    between atoms: _153  and  _154
REMARK   65  A    between atoms: _159  and  _161
REMARK   66  A    between atoms: _161  and  _162
REMARK   67  A    between atoms: _161  and  _164
REMARK   68  A    between atoms: _164  and  _165
REMARK   69  A    between atoms: _167  and  _169
REMARK   70  A    between atoms: _169  and  _170
REMARK   71  A    between atoms: _172  and  _174
REMARK   72  A    between atoms: _174  and  _175
REMARK   73  A    between atoms: _174  and  _177
REMARK   74  A    between atoms: _177  and  _178
REMARK   75  A    between atoms: _180  and  _182
REMARK   76  A    between atoms: _182  and  _183
REMARK   77  A    between atoms: _187  and  _188
REMARK   78  A    between atoms: _193  and  _195
REMARK   79  A    between atoms: _195  and  _196
REMARK   80  A    between atoms: _195  and  _198
REMARK   81  A    between atoms: _198  and  _199
REMARK   82  A    between atoms: _202  and  _204
REMARK   83  A    between atoms: _204  and  _205
REMARK   84  A    between atoms: _204  and  _207
REMARK   85  A    between atoms: _207  and  _208
REMARK   86  A    between atoms: _211  and  _213
REMARK   87  A    between atoms: _213  and  _214
REMARK   88  A    between atoms: _213  and  _216
REMARK   89  A    between atoms: _216  and  _217
REMARK   90  A    between atoms: _217  and  _218
REMARK   91  A    between atoms: _221  and  _223
REMARK   92  A    between atoms: _223  and  _224
REMARK   93  A    between atoms: _223  and  _226
REMARK   94  A    between atoms: _226  and  _227
REMARK   95  A    between atoms: _227  and  _228
REMARK   96  A    between atoms: _228  and  _229
REMARK   97  A    between atoms: _238  and  _240
REMARK   98  A    between atoms: _240  and  _241
REMARK   99  A    between atoms: _240  and  _243
REMARK  100  A    between atoms: _243  and  _244
REMARK  101  A    between atoms: _249  and  _250
REMARK  102  A    between atoms: _252  and  _254
REMARK  103  A    between atoms: _254  and  _255
REMARK  104  A    between atoms: _257  and  _259
REMARK  105  A    between atoms: _259  and  _260
REMARK  106  A    between atoms: _259  and  _262
REMARK  107  A    between atoms: _262  and  _263
REMARK  108  A    between atoms: _263  and  _264
REMARK  109  A    between atoms: _266  and  _268
REMARK  110  A    between atoms: _268  and  _269
REMARK  111  A    between atoms: _268  and  _271
REMARK  112  A    between atoms: _271  and  _272
REMARK  113  A    between atoms: _275  and  _277
REMARK  114  A    between atoms: _277  and  _278
REMARK  115  A    between atoms: _277  and  _280
REMARK  116  A    between atoms: _280  and  _281
REMARK  117  A    between atoms: _281  and  _282
REMARK  118  A    between atoms: _285  and  _287
REMARK  119  A    between atoms: _287  and  _288
REMARK  120  A    between atoms: _287  and  _290
REMARK  121  A    between atoms: _290  and  _291
REMARK  122  A    between atoms: _294  and  _296
REMARK  123  A    between atoms: _296  and  _297
REMARK  124  A    between atoms: _296  and  _299
REMARK  125  A    between atoms: _299  and  _300
REMARK  126  A    between atoms: _305  and  _307
REMARK  127  A    between atoms: _307  and  _308
REMARK  128  A    between atoms: _307  and  _310
REMARK  129  A    between atoms: _310  and  _311
REMARK  130  A    between atoms: _311  and  _312
REMARK  131  A    between atoms: _314  and  _316
REMARK  132  A    between atoms: _316  and  _317
REMARK  133  A    between atoms: _316  and  _319
REMARK  134  A    between atoms: _319  and  _320
REMARK  135  A    between atoms: _325  and  _327
REMARK  136  A    between atoms: _327  and  _328
REMARK  137  A    between atoms: _327  and  _330
REMARK  138  A    between atoms: _330  and  _331
REMARK  139  A    between atoms: _334  and  _336
REMARK  140  A    between atoms: _336  and  _337
REMARK  141  A    between atoms: _336  and  _339
REMARK  142  A    between atoms: _339  and  _340
REMARK  143  A    between atoms: _345  and  _347
REMARK  144  A    between atoms: _347  and  _348
REMARK  145  A    between atoms: _350  and  _352
REMARK  146  A    between atoms: _352  and  _353
REMARK  147  A    between atoms: _356  and  _358
REMARK  148  A    between atoms: _358  and  _359
REMARK  149  A    between atoms: _358  and  _361
REMARK  150  A    between atoms: _364  and  _366
REMARK  151  A    between atoms: _366  and  _367
REMARK  152  A    between atoms: _369  and  _371
REMARK  153  A    between atoms: _371  and  _372
REMARK  154  A    between atoms: _371  and  _374
REMARK  155  A    between atoms: _374  and  _375
REMARK  156  A    between atoms: _380  and  _381
REMARK  157  A    between atoms: _383  and  _385
REMARK  158  A    between atoms: _385  and  _386
REMARK  159  A    between atoms: _385  and  _388
REMARK  160  A    between atoms: _388  and  _389
REMARK  161  A    between atoms: _395  and  _397
REMARK  162  A    between atoms: _397  and  _398
REMARK  163  A    between atoms: _397  and  _400
REMARK  164  A    between atoms: _400  and  _401
REMARK  165  A    between atoms: _404  and  _406
REMARK  166  A    between atoms: _406  and  _407
REMARK  167  A    between atoms: _406  and  _409
REMARK  168  A    between atoms: _409  and  _410
REMARK  169  A    between atoms: _413  and  _415
REMARK  170  A    between atoms: _415  and  _416
REMARK  171  A    between atoms: _418  and  _420
REMARK  172  A    between atoms: _420  and  _421
REMARK  173  A    between atoms: _420  and  _423
REMARK  174  A    between atoms: _423  and  _424
REMARK  175  A    between atoms: _427  and  _429
REMARK  176  A    between atoms: _429  and  _430
REMARK  177  A    between atoms: _429  and  _432
REMARK  178  A    between atoms: _432  and  _433
REMARK  179  A    between atoms: _436  and  _438
REMARK  180  A    between atoms: _438  and  _439
REMARK  181  A    between atoms: _438  and  _441
REMARK  182  A    between atoms: _441  and  _442
REMARK  183  A    between atoms: _447  and  _449
REMARK  184  A    between atoms: _449  and  _450
REMARK  185  A    between atoms: _449  and  _452
REMARK  186  A    between atoms: _452  and  _453
REMARK  187  A    between atoms: _456  and  _458
REMARK  188  A    between atoms: _458  and  _459
REMARK  189  A    between atoms: _458  and  _461
REMARK  190  A    between atoms: _461  and  _462
REMARK  191  A    between atoms: _465  and  _467
REMARK  192  A    between atoms: _467  and  _468
REMARK  193  A    between atoms: _470  and  _472
REMARK  194  A    between atoms: _472  and  _473
REMARK  195  A    between atoms: _472  and  _475
REMARK  196  A    between atoms: _475  and  _476
REMARK  197  A    between atoms: _476  and  _477
REMARK  198  A    between atoms: _477  and  _478
REMARK  199  A    between atoms: _487  and  _489
REMARK  200  A    between atoms: _489  and  _490
REMARK  201  A    between atoms: _492  and  _494
REMARK  202  A    between atoms: _494  and  _495
REMARK  203  A    between atoms: _494  and  _497
REMARK  204  A    between atoms: _497  and  _498
REMARK  205  A    between atoms: _501  and  _503
REMARK  206  A    between atoms: _503  and  _504
REMARK  207  A    between atoms: _503  and  _512
REMARK  208  A    between atoms: _504  and  _505
REMARK  209  A    between atoms: _505  and  _506
REMARK  210  A    between atoms: _506  and  _507
REMARK  211  A    between atoms: _507  and  _508
REMARK  212  A    between atoms: _514  and  _516
REMARK  213  A    between atoms: _516  and  _517
REMARK  214  A    between atoms: _516  and  _519
REMARK  215  A    between atoms: _519  and  _520
REMARK  216  A    between atoms: _525  and  _527
REMARK  217  A    between atoms: _527  and  _528
REMARK  218  A    between atoms: _527  and  _530
REMARK  219  A    between atoms: _530  and  _531
REMARK  220  A    between atoms: _531  and  _532
REMARK  221  A    between atoms: _534  and  _536
REMARK  222  A    between atoms: _536  and  _537
REMARK  223  A    between atoms: _540  and  _542
REMARK  224  A    between atoms: _542  and  _543
REMARK  225  A    between atoms: _542  and  _545
REMARK  226  A    between atoms: _548  and  _550
REMARK  227  A    between atoms: _550  and  _551
REMARK  228  A    between atoms: _550  and  _553
REMARK  229  A    between atoms: _553  and  _554
REMARK  230  A    between atoms: _554  and  _555
REMARK  231  A    between atoms: _560  and  _562
REMARK  232  A    between atoms: _562  and  _563
REMARK  233  A    between atoms: _562  and  _565
REMARK  234  A    between atoms: _565  and  _566
REMARK                            x       y       z     vdW  Elec       q    Type
REMARK                         _______ _______ _______ _____ _____    ______ ____
ROOT
ATOM      1  O   HOH     1      41.541 -53.546  -9.601  0.00  0.00    +0.000 OA
ENDROOT
TORSDOF 0
REMARK  Name = ../refined-set-2016/4fut/4fut_pocket.pdb
REMARK  234 active torsions:
REMARK  status: ('A' for Active; 'I' for Inactive)
REMARK    1  A    between atoms: _1  and  _3
REMARK    2  A    between atoms: _3  and  _4
REMARK    3  A    between atoms: _3  and  _6
REMARK    4  A    between atoms: _6  and  _7
REMARK    5  A    between atoms: _12  and  _13
REMARK    6  A    between atoms: _15  and  _17
REMARK    7  A    between atoms: _17  and  _18
REMARK    8  A    between atoms: _17  and  _20
REMARK    9  A    between atoms: _20  and  _21
REMARK   10  A    between atoms: _24  and  _26
REMARK   11  A    between atoms: _26  and  _27
REMARK   12  A    between atoms: _26  and  _29
REMARK   13  A    between atoms: _29  and  _30
REMARK   14  A    between atoms: _35  and  _36
REMARK   15  A    between atoms: _38  and  _40
REMARK   16  A    between atoms: _40  and  _41
REMARK   17  A    between atoms: _40  and  _43
REMARK   18  A    between atoms: _43  and  _44
REMARK   19  A    between atoms: _47  and  _49
REMARK   20  A    between atoms: _49  and  _50
REMARK   21  A    between atoms: _49  and  _52
REMARK   22  A    between atoms: _52  and  _53
REMARK   23  A    between atoms: _55  and  _57
REMARK   24  A    between atoms: _57  and  _58
REMARK   25  A    between atoms: _60  and  _62
REMARK   26  A    between atoms: _62  and  _63
REMARK   27  A    between atoms: _62  and  _65
REMARK   28  A    between atoms: _65  and  _66
REMARK   29  A    between atoms: _69  and  _71
REMARK   30  A    between atoms: _71  and  _72
REMARK   31  A    between atoms: _71  and  _74
REMARK   32  A    between atoms: _74  and  _75
REMARK   33  A    between atoms: _78  and  _80
REMARK   34  A    between atoms: _80  and  _81
REMARK   35  A    between atoms: _83  and  _85
REMARK   36  A    between atoms: _85  and  _86
REMARK   37  A    between atoms: _85  and  _88
REMARK   38  A    between atoms: _88  and  _89
REMARK   39  A    between atoms: _89  and  _90
REMARK   40  A    between atoms: _90  and  _91
REMARK   41  A    between atoms: _100  and  _102
REMARK   42  A    between atoms: _102  and  _103
REMARK   43  A    between atoms: _102  and  _105
REMARK   44  A    between atoms: _105  and  _106
REMARK   45  A    between atoms: _108  and  _110
REMARK   46  A    between atoms: _110  and  _111
REMARK   47  A    between atoms: _110  and  _119
REMARK   48  A    between atoms: _111  and  _112
REMARK   49  A    between atoms: _112  and  _113
REMARK   50  A    between atoms: _113  and  _114
REMARK   51  A    between atoms: _114  and  _115
REMARK   52  A    between atoms: _121  and  _123
REMARK   53  A    between atoms: _123  and  _124
REMARK   54  A    between atoms: _123  and  _126
REMARK   55  A    between atoms: _126  and  _127
REMARK   56  A    between atoms: _132  and  _134
REMARK   57  A    between atoms: _134  and  _135
REMARK   58  A    between atoms: _134  and  _137
REMARK   59  A    between atoms: _137  and  _138
REMARK   60  A    between atoms: _141  and  _143
REMARK   61  A    between atoms: _143  and  _144
REMARK   62  A    between atoms: _143  and  _146
REMARK   63  A    between atoms: _146  and  _147
REMARK   64  A    between atoms: _153  and  _154
REMARK   65  A    between atoms: _159  and  _161
REMARK   66  A    between atoms: _161  and  _162
REMARK   67  A    between atoms: _161  and  _164
REMARK   68  A    between atoms: _164  and  _165
REMARK   69  A    between atoms: _167  and  _169
REMARK   70  A    between atoms: _169  and  _170
REMARK   71  A    between atoms: _172  and  _174
REMARK   72  A    between atoms: _174  and  _175
REMARK   73  A    between atoms: _174  and  _177
REMARK   74  A    between atoms: _177  and  _178
REMARK   75  A    between atoms: _180  and  _182
REMARK   76  A    between atoms: _182  and  _183
REMARK   77  A    between atoms: _187  and  _188
REMARK   78  A    between atoms: _193  and  _195
REMARK   79  A    between atoms: _195  and  _196
REMARK   80  A    between atoms: _195  and  _198
REMARK   81  A    between atoms: _198  and  _199
REMARK   82  A    between atoms: _202  and  _204
REMARK   83  A    between atoms: _204  and  _205
REMARK   84  A    between atoms: _204  and  _207
REMARK   85  A    between atoms: _207  and  _208
REMARK   86  A    between atoms: _211  and  _213
REMARK   87  A    between atoms: _213  and  _214
REMARK   88  A    between atoms: _213  and  _216
REMARK   89  A    between atoms: _216  and  _217
REMARK   90  A    between atoms: _217  and  _218
REMARK   91  A    between atoms: _221  and  _223
REMARK   92  A    between atoms: _223  and  _224
REMARK   93  A    between atoms: _223  and  _226
REMARK   94  A    between atoms: _226  and  _227
REMARK   95  A    between atoms: _227  and  _228
REMARK   96  A    between atoms: _228  and  _229
REMARK   97  A    between atoms: _238  and  _240
REMARK   98  A    between atoms: _240  and  _241
REMARK   99  A    between atoms: _240  and  _243
REMARK  100  A    between atoms: _243  and  _244
REMARK  101  A    between atoms: _249  and  _250
REMARK  102  A    between atoms: _252  and  _254
REMARK  103  A    between atoms: _254  and  _255
REMARK  104  A    between atoms: _257  and  _259
REMARK  105  A    between atoms: _259  and  _260
REMARK  106  A    between atoms: _259  and  _262
REMARK  107  A    between atoms: _262  and  _263
REMARK  108  A    between atoms: _263  and  _264
REMARK  109  A    between atoms: _266  and  _268
REMARK  110  A    between atoms: _268  and  _269
REMARK  111  A    between atoms: _268  and  _271
REMARK  112  A    between atoms: _271  and  _272
REMARK  113  A    between atoms: _275  and  _277
REMARK  114  A    between atoms: _277  and  _278
REMARK  115  A    between atoms: _277  and  _280
REMARK  116  A    between atoms: _280  and  _281
REMARK  117  A    between atoms: _281  and  _282
REMARK  118  A    between atoms: _285  and  _287
REMARK  119  A    between atoms: _287  and  _288
REMARK  120  A    between atoms: _287  and  _290
REMARK  121  A    between atoms: _290  and  _291
REMARK  122  A    between atoms: _294  and  _296
REMARK  123  A    between atoms: _296  and  _297
REMARK  124  A    between atoms: _296  and  _299
REMARK  125  A    between atoms: _299  and  _300
REMARK  126  A    between atoms: _305  and  _307
REMARK  127  A    between atoms: _307  and  _308
REMARK  128  A    between atoms: _307  and  _310
REMARK  129  A    between atoms: _310  and  _311
REMARK  130  A    between atoms: _311  and  _312
REMARK  131  A    between atoms: _314  and  _316
REMARK  132  A    between atoms: _316  and  _317
REMARK  133  A    between atoms: _316  and  _319
REMARK  134  A    between atoms: _319  and  _320
REMARK  135  A    between atoms: _325  and  _327
REMARK  136  A    between atoms: _327  and  _328
REMARK  137  A    between atoms: _327  and  _330
REMARK  138  A    between atoms: _330  and  _331
REMARK  139  A    between atoms: _334  and  _336
REMARK  140  A    between atoms: _336  and  _337
REMARK  141  A    between atoms: _336  and  _339
REMARK  142  A    between atoms: _339  and  _340
REMARK  143  A    between atoms: _345  and  _347
REMARK  144  A    between atoms: _347  and  _348
REMARK  145  A    between atoms: _350  and  _352
REMARK  146  A    between atoms: _352  and  _353
REMARK  147  A    between atoms: _356  and  _358
REMARK  148  A    between atoms: _358  and  _359
REMARK  149  A    between atoms: _358  and  _361
REMARK  150  A    between atoms: _364  and  _366
REMARK  151  A    between atoms: _366  and  _367
REMARK  152  A    between atoms: _369  and  _371
REMARK  153  A    between atoms: _371  and  _372
REMARK  154  A    between atoms: _371  and  _374
REMARK  155  A    between atoms: _374  and  _375
REMARK  156  A    between atoms: _380  and  _381
REMARK  157  A    between atoms: _383  and  _385
REMARK  158  A    between atoms: _385  and  _386
REMARK  159  A    between atoms: _385  and  _388
REMARK  160  A    between atoms: _388  and  _389
REMARK  161  A    between atoms: _395  and  _397
REMARK  162  A    between atoms: _397  and  _398
REMARK  163  A    between atoms: _397  and  _400
REMARK  164  A    between atoms: _400  and  _401
REMARK  165  A    between atoms: _404  and  _406
REMARK  166  A    between atoms: _406  and  _407
REMARK  167  A    between atoms: _406  and  _409
REMARK  168  A    between atoms: _409  and  _410
REMARK  169  A    between atoms: _413  and  _415
REMARK  170  A    between atoms: _415  and  _416
REMARK  171  A    between atoms: _418  and  _420
REMARK  172  A    between atoms: _420  and  _421
REMARK  173  A    between atoms: _420  and  _423
REMARK  174  A    between atoms: _423  and  _424
REMARK  175  A    between atoms: _427  and  _429
REMARK  176  A    between atoms: _429  and  _430
REMARK  177  A    between atoms: _429  and  _432
REMARK  178  A    between atoms: _432  and  _433
REMARK  179  A    between atoms: _436  and  _438
REMARK  180  A    between atoms: _438  and  _439
REMARK  181  A    between atoms: _438  and  _441
REMARK  182  A    between atoms: _441  and  _442
REMARK  183  A    between atoms: _447  and  _449
REMARK  184  A    between atoms: _449  and  _450
REMARK  185  A    between atoms: _449  and  _452
REMARK  186  A    between atoms: _452  and  _453
REMARK  187  A    between atoms: _456  and  _458
REMARK  188  A    between atoms: _458  and  _459
REMARK  189  A    between atoms: _458  and  _461
REMARK  190  A    between atoms: _461  and  _462
REMARK  191  A    between atoms: _465  and  _467
REMARK  192  A    between atoms: _467  and  _468
REMARK  193  A    between atoms: _470  and  _472
REMARK  194  A    between atoms: _472  and  _473
REMARK  195  A    between atoms: _472  and  _475
REMARK  196  A    between atoms: _475  and  _476
REMARK  197  A    between atoms: _476  and  _477
REMARK  198  A    between atoms: _477  and  _478
REMARK  199  A    between atoms: _487  and  _489
REMARK  200  A    between atoms: _489  and  _490
REMARK  201  A    between atoms: _492  and  _494
REMARK  202  A    between atoms: _494  and  _495
REMARK  203  A    between atoms: _494  and  _497
REMARK  204  A    between atoms: _497  and  _498
REMARK  205  A    between atoms: _501  and  _503
REMARK  206  A    between atoms: _503  and  _504
REMARK  207  A    between atoms: _503  and  _512
REMARK  208  A    between atoms: _504  and  _505
REMARK  209  A    between atoms: _505  and  _506
REMARK  210  A    between atoms: _506  and  _507
REMARK  211  A    between atoms: _507  and  _508
REMARK  212  A    between atoms: _514  and  _516
REMARK  213  A    between atoms: _516  and  _517
REMARK  214  A    between atoms: _516  and  _519
REMARK  215  A    between atoms: _519  and  _520
REMARK  216  A    between atoms: _525  and  _527
REMARK  217  A    between atoms: _527  and  _528
REMARK  218  A    between atoms: _527  and  _530
REMARK  219  A    between atoms: _530  and  _531
REMARK  220  A    between atoms: _531  and  _532
REMARK  221  A    between atoms: _534  and  _536
REMARK  222  A    between atoms: _536  and  _537
REMARK  223  A    between atoms: _540  and  _542
REMARK  224  A    between atoms: _542  and  _543
REMARK  225  A    between atoms: _542  and  _545
REMARK  226  A    between atoms: _548  and  _550
REMARK  227  A    between atoms: _550  and  _551
REMARK  228  A    between atoms: _550  and  _553
REMARK  229  A    between atoms: _553  and  _554
REMARK  230  A    between atoms: _554  and  _555
REMARK  231  A    between atoms: _560  and  _562
REMARK  232  A    between atoms: _562  and  _563
REMARK  233  A    between atoms: _562  and  _565
REMARK  234  A    between atoms: _565  and  _566
REMARK                            x       y       z     vdW  Elec       q    Type
REMARK                         _______ _______ _______ _____ _____    ______ ____
ROOT
ATOM      1  O   HOH     1      43.828 -47.698   2.405  0.00  0.00    +0.000 OA
ENDROOT
TORSDOF 0
REMARK  Name = ../refined-set-2016/4fut/4fut_pocket.pdb
REMARK  234 active torsions:
REMARK  status: ('A' for Active; 'I' for Inactive)
REMARK    1  A    between atoms: _1  and  _3
REMARK    2  A    between atoms: _3  and  _4
REMARK    3  A    between atoms: _3  and  _6
REMARK    4  A    between atoms: _6  and  _7
REMARK    5  A    between atoms: _12  and  _13
REMARK    6  A    between atoms: _15  and  _17
REMARK    7  A    between atoms: _17  and  _18
REMARK    8  A    between atoms: _17  and  _20
REMARK    9  A    between atoms: _20  and  _21
REMARK   10  A    between atoms: _24  and  _26
REMARK   11  A    between atoms: _26  and  _27
REMARK   12  A    between atoms: _26  and  _29
REMARK   13  A    between atoms: _29  and  _30
REMARK   14  A    between atoms: _35  and  _36
REMARK   15  A    between atoms: _38  and  _40
REMARK   16  A    between atoms: _40  and  _41
REMARK   17  A    between atoms: _40  and  _43
REMARK   18  A    between atoms: _43  and  _44
REMARK   19  A    between atoms: _47  and  _49
REMARK   20  A    between atoms: _49  and  _50
REMARK   21  A    between atoms: _49  and  _52
REMARK   22  A    between atoms: _52  and  _53
REMARK   23  A    between atoms: _55  and  _57
REMARK   24  A    between atoms: _57  and  _58
REMARK   25  A    between atoms: _60  and  _62
REMARK   26  A    between atoms: _62  and  _63
REMARK   27  A    between atoms: _62  and  _65
REMARK   28  A    between atoms: _65  and  _66
REMARK   29  A    between atoms: _69  and  _71
REMARK   30  A    between atoms: _71  and  _72
REMARK   31  A    between atoms: _71  and  _74
REMARK   32  A    between atoms: _74  and  _75
REMARK   33  A    between atoms: _78  and  _80
REMARK   34  A    between atoms: _80  and  _81
REMARK   35  A    between atoms: _83  and  _85
REMARK   36  A    between atoms: _85  and  _86
REMARK   37  A    between atoms: _85  and  _88
REMARK   38  A    between atoms: _88  and  _89
REMARK   39  A    between atoms: _89  and  _90
REMARK   40  A    between atoms: _90  and  _91
REMARK   41  A    between atoms: _100  and  _102
REMARK   42  A    between atoms: _102  and  _103
REMARK   43  A    between atoms: _102  and  _105
REMARK   44  A    between atoms: _105  and  _106
REMARK   45  A    between atoms: _108  and  _110
REMARK   46  A    between atoms: _110  and  _111
REMARK   47  A    between atoms: _110  and  _119
REMARK   48  A    between atoms: _111  and  _112
REMARK   49  A    between atoms: _112  and  _113
REMARK   50  A    between atoms: _113  and  _114
REMARK   51  A    between atoms: _114  and  _115
REMARK   52  A    between atoms: _121  and  _123
REMARK   53  A    between atoms: _123  and  _124
REMARK   54  A    between atoms: _123  and  _126
REMARK   55  A    between atoms: _126  and  _127
REMARK   56  A    between atoms: _132  and  _134
REMARK   57  A    between atoms: _134  and  _135
REMARK   58  A    between atoms: _134  and  _137
REMARK   59  A    between atoms: _137  and  _138
REMARK   60  A    between atoms: _141  and  _143
REMARK   61  A    between atoms: _143  and  _144
REMARK   62  A    between atoms: _143  and  _146
REMARK   63  A    between atoms: _146  and  _147
REMARK   64  A    between atoms: _153  and  _154
REMARK   65  A    between atoms: _159  and  _161
REMARK   66  A    between atoms: _161  and  _162
REMARK   67  A    between atoms: _161  and  _164
REMARK   68  A    between atoms: _164  and  _165
REMARK   69  A    between atoms: _167  and  _169
REMARK   70  A    between atoms: _169  and  _170
REMARK   71  A    between atoms: _172  and  _174
REMARK   72  A    between atoms: _174  and  _175
REMARK   73  A    between atoms: _174  and  _177
REMARK   74  A    between atoms: _177  and  _178
REMARK   75  A    between atoms: _180  and  _182
REMARK   76  A    between atoms: _182  and  _183
REMARK   77  A    between atoms: _187  and  _188
REMARK   78  A    between atoms: _193  and  _195
REMARK   79  A    between atoms: _195  and  _196
REMARK   80  A    between atoms: _195  and  _198
REMARK   81  A    between atoms: _198  and  _199
REMARK   82  A    between atoms: _202  and  _204
REMARK   83  A    between atoms: _204  and  _205
REMARK   84  A    between atoms: _204  and  _207
REMARK   85  A    between atoms: _207  and  _208
REMARK   86  A    between atoms: _211  and  _213
REMARK   87  A    between atoms: _213  and  _214
REMARK   88  A    between atoms: _213  and  _216
REMARK   89  A    between atoms: _216  and  _217
REMARK   90  A    between atoms: _217  and  _218
REMARK   91  A    between atoms: _221  and  _223
REMARK   92  A    between atoms: _223  and  _224
REMARK   93  A    between atoms: _223  and  _226
REMARK   94  A    between atoms: _226  and  _227
REMARK   95  A    between atoms: _227  and  _228
REMARK   96  A    between atoms: _228  and  _229
REMARK   97  A    between atoms: _238  and  _240
REMARK   98  A    between atoms: _240  and  _241
REMARK   99  A    between atoms: _240  and  _243
REMARK  100  A    between atoms: _243  and  _244
REMARK  101  A    between atoms: _249  and  _250
REMARK  102  A    between atoms: _252  and  _254
REMARK  103  A    between atoms: _254  and  _255
REMARK  104  A    between atoms: _257  and  _259
REMARK  105  A    between atoms: _259  and  _260
REMARK  106  A    between atoms: _259  and  _262
REMARK  107  A    between atoms: _262  and  _263
REMARK  108  A    between atoms: _263  and  _264
REMARK  109  A    between atoms: _266  and  _268
REMARK  110  A    between atoms: _268  and  _269
REMARK  111  A    between atoms: _268  and  _271
REMARK  112  A    between atoms: _271  and  _272
REMARK  113  A    between atoms: _275  and  _277
REMARK  114  A    between atoms: _277  and  _278
REMARK  115  A    between atoms: _277  and  _280
REMARK  116  A    between atoms: _280  and  _281
REMARK  117  A    between atoms: _281  and  _282
REMARK  118  A    between atoms: _285  and  _287
REMARK  119  A    between atoms: _287  and  _288
REMARK  120  A    between atoms: _287  and  _290
REMARK  121  A    between atoms: _290  and  _291
REMARK  122  A    between atoms: _294  and  _296
REMARK  123  A    between atoms: _296  and  _297
REMARK  124  A    between atoms: _296  and  _299
REMARK  125  A    between atoms: _299  and  _300
REMARK  126  A    between atoms: _305  and  _307
REMARK  127  A    between atoms: _307  and  _308
REMARK  128  A    between atoms: _307  and  _310
REMARK  129  A    between atoms: _310  and  _311
REMARK  130  A    between atoms: _311  and  _312
REMARK  131  A    between atoms: _314  and  _316
REMARK  132  A    between atoms: _316  and  _317
REMARK  133  A    between atoms: _316  and  _319
REMARK  134  A    between atoms: _319  and  _320
REMARK  135  A    between atoms: _325  and  _327
REMARK  136  A    between atoms: _327  and  _328
REMARK  137  A    between atoms: _327  and  _330
REMARK  138  A    between atoms: _330  and  _331
REMARK  139  A    between atoms: _334  and  _336
REMARK  140  A    between atoms: _336  and  _337
REMARK  141  A    between atoms: _336  and  _339
REMARK  142  A    between atoms: _339  and  _340
REMARK  143  A    between atoms: _345  and  _347
REMARK  144  A    between atoms: _347  and  _348
REMARK  145  A    between atoms: _350  and  _352
REMARK  146  A    between atoms: _352  and  _353
REMARK  147  A    between atoms: _356  and  _358
REMARK  148  A    between atoms: _358  and  _359
REMARK  149  A    between atoms: _358  and  _361
REMARK  150  A    between atoms: _364  and  _366
REMARK  151  A    between atoms: _366  and  _367
REMARK  152  A    between atoms: _369  and  _371
REMARK  153  A    between atoms: _371  and  _372
REMARK  154  A    between atoms: _371  and  _374
REMARK  155  A    between atoms: _374  and  _375
REMARK  156  A    between atoms: _380  and  _381
REMARK  157  A    between atoms: _383  and  _385
REMARK  158  A    between atoms: _385  and  _386
REMARK  159  A    between atoms: _385  and  _388
REMARK  160  A    between atoms: _388  and  _389
REMARK  161  A    between atoms: _395  and  _397
REMARK  162  A    between atoms: _397  and  _398
REMARK  163  A    between atoms: _397  and  _400
REMARK  164  A    between atoms: _400  and  _401
REMARK  165  A    between atoms: _404  and  _406
REMARK  166  A    between atoms: _406  and  _407
REMARK  167  A    between atoms: _406  and  _409
REMARK  168  A    between atoms: _409  and  _410
REMARK  169  A    between atoms: _413  and  _415
REMARK  170  A    between atoms: _415  and  _416
REMARK  171  A    between atoms: _418  and  _420
REMARK  172  A    between atoms: _420  and  _421
REMARK  173  A    between atoms: _420  and  _423
REMARK  174  A    between atoms: _423  and  _424
REMARK  175  A    between atoms: _427  and  _429
REMARK  176  A    between atoms: _429  and  _430
REMARK  177  A    between atoms: _429  and  _432
REMARK  178  A    between atoms: _432  and  _433
REMARK  179  A    between atoms: _436  and  _438
REMARK  180  A    between atoms: _438  and  _439
REMARK  181  A    between atoms: _438  and  _441
REMARK  182  A    between atoms: _441  and  _442
REMARK  183  A    between atoms: _447  and  _449
REMARK  184  A    between atoms: _449  and  _450
REMARK  185  A    between atoms: _449  and  _452
REMARK  186  A    between atoms: _452  and  _453
REMARK  187  A    between atoms: _456  and  _458
REMARK  188  A    between atoms: _458  and  _459
REMARK  189  A    between atoms: _458  and  _461
REMARK  190  A    between atoms: _461  and  _462
REMARK  191  A    between atoms: _465  and  _467
REMARK  192  A    between atoms: _467  and  _468
REMARK  193  A    between atoms: _470  and  _472
REMARK  194  A    between atoms: _472  and  _473
REMARK  195  A    between atoms: _472  and  _475
REMARK  196  A    between atoms: _475  and  _476
REMARK  197  A    between atoms: _476  and  _477
REMARK  198  A    between atoms: _477  and  _478
REMARK  199  A    between atoms: _487  and  _489
REMARK  200  A    between atoms: _489  and  _490
REMARK  201  A    between atoms: _492  and  _494
REMARK  202  A    between atoms: _494  and  _495
REMARK  203  A    between atoms: _494  and  _497
REMARK  204  A    between atoms: _497  and  _498
REMARK  205  A    between atoms: _501  and  _503
REMARK  206  A    between atoms: _503  and  _504
REMARK  207  A    between atoms: _503  and  _512
REMARK  208  A    between atoms: _504  and  _505
REMARK  209  A    between atoms: _505  and  _506
REMARK  210  A    between atoms: _506  and  _507
REMARK  211  A    between atoms: _507  and  _508
REMARK  212  A    between atoms: _514  and  _516
REMARK  213  A    between atoms: _516  and  _517
REMARK  214  A    between atoms: _516  and  _519
REMARK  215  A    between atoms: _519  and  _520
REMARK  216  A    between atoms: _525  and  _527
REMARK  217  A    between atoms: _527  and  _528
REMARK  218  A    between atoms: _527  and  _530
REMARK  219  A    between atoms: _530  and  _531
REMARK  220  A    between atoms: _531  and  _532
REMARK  221  A    between atoms: _534  and  _536
REMARK  222  A    between atoms: _536  and  _537
REMARK  223  A    between atoms: _540  and  _542
REMARK  224  A    between atoms: _542  and  _543
REMARK  225  A    between atoms: _542  and  _545
REMARK  226  A    between atoms: _548  and  _550
REMARK  227  A    between atoms: _550  and  _551
REMARK  228  A    between atoms: _550  and  _553
REMARK  229  A    between atoms: _553  and  _554
REMARK  230  A    between atoms: _554  and  _555
REMARK  231  A    between atoms: _560  and  _562
REMARK  232  A    between atoms: _562  and  _563
REMARK  233  A    between atoms: _562  and  _565
REMARK  234  A    between atoms: _565  and  _566
REMARK                            x       y       z     vdW  Elec       q    Type
REMARK                         _______ _______ _______ _____ _____    ______ ____
ROOT
ATOM      1  O   HOH     1      40.088 -48.346   3.266  0.00  0.00    +0.000 OA
ENDROOT
TORSDOF 0
REMARK  Name = ../refined-set-2016/4fut/4fut_pocket.pdb
REMARK  234 active torsions:
REMARK  status: ('A' for Active; 'I' for Inactive)
REMARK    1  A    between atoms: _1  and  _3
REMARK    2  A    between atoms: _3  and  _4
REMARK    3  A    between atoms: _3  and  _6
REMARK    4  A    between atoms: _6  and  _7
REMARK    5  A    between atoms: _12  and  _13
REMARK    6  A    between atoms: _15  and  _17
REMARK    7  A    between atoms: _17  and  _18
REMARK    8  A    between atoms: _17  and  _20
REMARK    9  A    between atoms: _20  and  _21
REMARK   10  A    between atoms: _24  and  _26
REMARK   11  A    between atoms: _26  and  _27
REMARK   12  A    between atoms: _26  and  _29
REMARK   13  A    between atoms: _29  and  _30
REMARK   14  A    between atoms: _35  and  _36
REMARK   15  A    between atoms: _38  and  _40
REMARK   16  A    between atoms: _40  and  _41
REMARK   17  A    between atoms: _40  and  _43
REMARK   18  A    between atoms: _43  and  _44
REMARK   19  A    between atoms: _47  and  _49
REMARK   20  A    between atoms: _49  and  _50
REMARK   21  A    between atoms: _49  and  _52
REMARK   22  A    between atoms: _52  and  _53
REMARK   23  A    between atoms: _55  and  _57
REMARK   24  A    between atoms: _57  and  _58
REMARK   25  A    between atoms: _60  and  _62
REMARK   26  A    between atoms: _62  and  _63
REMARK   27  A    between atoms: _62  and  _65
REMARK   28  A    between atoms: _65  and  _66
REMARK   29  A    between atoms: _69  and  _71
REMARK   30  A    between atoms: _71  and  _72
REMARK   31  A    between atoms: _71  and  _74
REMARK   32  A    between atoms: _74  and  _75
REMARK   33  A    between atoms: _78  and  _80
REMARK   34  A    between atoms: _80  and  _81
REMARK   35  A    between atoms: _83  and  _85
REMARK   36  A    between atoms: _85  and  _86
REMARK   37  A    between atoms: _85  and  _88
REMARK   38  A    between atoms: _88  and  _89
REMARK   39  A    between atoms: _89  and  _90
REMARK   40  A    between atoms: _90  and  _91
REMARK   41  A    between atoms: _100  and  _102
REMARK   42  A    between atoms: _102  and  _103
REMARK   43  A    between atoms: _102  and  _105
REMARK   44  A    between atoms: _105  and  _106
REMARK   45  A    between atoms: _108  and  _110
REMARK   46  A    between atoms: _110  and  _111
REMARK   47  A    between atoms: _110  and  _119
REMARK   48  A    between atoms: _111  and  _112
REMARK   49  A    between atoms: _112  and  _113
REMARK   50  A    between atoms: _113  and  _114
REMARK   51  A    between atoms: _114  and  _115
REMARK   52  A    between atoms: _121  and  _123
REMARK   53  A    between atoms: _123  and  _124
REMARK   54  A    between atoms: _123  and  _126
REMARK   55  A    between atoms: _126  and  _127
REMARK   56  A    between atoms: _132  and  _134
REMARK   57  A    between atoms: _134  and  _135
REMARK   58  A    between atoms: _134  and  _137
REMARK   59  A    between atoms: _137  and  _138
REMARK   60  A    between atoms: _141  and  _143
REMARK   61  A    between atoms: _143  and  _144
REMARK   62  A    between atoms: _143  and  _146
REMARK   63  A    between atoms: _146  and  _147
REMARK   64  A    between atoms: _153  and  _154
REMARK   65  A    between atoms: _159  and  _161
REMARK   66  A    between atoms: _161  and  _162
REMARK   67  A    between atoms: _161  and  _164
REMARK   68  A    between atoms: _164  and  _165
REMARK   69  A    between atoms: _167  and  _169
REMARK   70  A    between atoms: _169  and  _170
REMARK   71  A    between atoms: _172  and  _174
REMARK   72  A    between atoms: _174  and  _175
REMARK   73  A    between atoms: _174  and  _177
REMARK   74  A    between atoms: _177  and  _178
REMARK   75  A    between atoms: _180  and  _182
REMARK   76  A    between atoms: _182  and  _183
REMARK   77  A    between atoms: _187  and  _188
REMARK   78  A    between atoms: _193  and  _195
REMARK   79  A    between atoms: _195  and  _196
REMARK   80  A    between atoms: _195  and  _198
REMARK   81  A    between atoms: _198  and  _199
REMARK   82  A    between atoms: _202  and  _204
REMARK   83  A    between atoms: _204  and  _205
REMARK   84  A    between atoms: _204  and  _207
REMARK   85  A    between atoms: _207  and  _208
REMARK   86  A    between atoms: _211  and  _213
REMARK   87  A    between atoms: _213  and  _214
REMARK   88  A    between atoms: _213  and  _216
REMARK   89  A    between atoms: _216  and  _217
REMARK   90  A    between atoms: _217  and  _218
REMARK   91  A    between atoms: _221  and  _223
REMARK   92  A    between atoms: _223  and  _224
REMARK   93  A    between atoms: _223  and  _226
REMARK   94  A    between atoms: _226  and  _227
REMARK   95  A    between atoms: _227  and  _228
REMARK   96  A    between atoms: _228  and  _229
REMARK   97  A    between atoms: _238  and  _240
REMARK   98  A    between atoms: _240  and  _241
REMARK   99  A    between atoms: _240  and  _243
REMARK  100  A    between atoms: _243  and  _244
REMARK  101  A    between atoms: _249  and  _250
REMARK  102  A    between atoms: _252  and  _254
REMARK  103  A    between atoms: _254  and  _255
REMARK  104  A    between atoms: _257  and  _259
REMARK  105  A    between atoms: _259  and  _260
REMARK  106  A    between atoms: _259  and  _262
REMARK  107  A    between atoms: _262  and  _263
REMARK  108  A    between atoms: _263  and  _264
REMARK  109  A    between atoms: _266  and  _268
REMARK  110  A    between atoms: _268  and  _269
REMARK  111  A    between atoms: _268  and  _271
REMARK  112  A    between atoms: _271  and  _272
REMARK  113  A    between atoms: _275  and  _277
REMARK  114  A    between atoms: _277  and  _278
REMARK  115  A    between atoms: _277  and  _280
REMARK  116  A    between atoms: _280  and  _281
REMARK  117  A    between atoms: _281  and  _282
REMARK  118  A    between atoms: _285  and  _287
REMARK  119  A    between atoms: _287  and  _288
REMARK  120  A    between atoms: _287  and  _290
REMARK  121  A    between atoms: _290  and  _291
REMARK  122  A    between atoms: _294  and  _296
REMARK  123  A    between atoms: _296  and  _297
REMARK  124  A    between atoms: _296  and  _299
REMARK  125  A    between atoms: _299  and  _300
REMARK  126  A    between atoms: _305  and  _307
REMARK  127  A    between atoms: _307  and  _308
REMARK  128  A    between atoms: _307  and  _310
REMARK  129  A    between atoms: _310  and  _311
REMARK  130  A    between atoms: _311  and  _312
REMARK  131  A    between atoms: _314  and  _316
REMARK  132  A    between atoms: _316  and  _317
REMARK  133  A    between atoms: _316  and  _319
REMARK  134  A    between atoms: _319  and  _320
REMARK  135  A    between atoms: _325  and  _327
REMARK  136  A    between atoms: _327  and  _328
REMARK  137  A    between atoms: _327  and  _330
REMARK  138  A    between atoms: _330  and  _331
REMARK  139  A    between atoms: _334  and  _336
REMARK  140  A    between atoms: _336  and  _337
REMARK  141  A    between atoms: _336  and  _339
REMARK  142  A    between atoms: _339  and  _340
REMARK  143  A    between atoms: _345  and  _347
REMARK  144  A    between atoms: _347  and  _348
REMARK  145  A    between atoms: _350  and  _352
REMARK  146  A    between atoms: _352  and  _353
REMARK  147  A    between atoms: _356  and  _358
REMARK  148  A    between atoms: _358  and  _359
REMARK  149  A    between atoms: _358  and  _361
REMARK  150  A    between atoms: _364  and  _366
REMARK  151  A    between atoms: _366  and  _367
REMARK  152  A    between atoms: _369  and  _371
REMARK  153  A    between atoms: _371  and  _372
REMARK  154  A    between atoms: _371  and  _374
REMARK  155  A    between atoms: _374  and  _375
REMARK  156  A    between atoms: _380  and  _381
REMARK  157  A    between atoms: _383  and  _385
REMARK  158  A    between atoms: _385  and  _386
REMARK  159  A    between atoms: _385  and  _388
REMARK  160  A    between atoms: _388  and  _389
REMARK  161  A    between atoms: _395  and  _397
REMARK  162  A    between atoms: _397  and  _398
REMARK  163  A    between atoms: _397  and  _400
REMARK  164  A    between atoms: _400  and  _401
REMARK  165  A    between atoms: _404  and  _406
REMARK  166  A    between atoms: _406  and  _407
REMARK  167  A    between atoms: _406  and  _409
REMARK  168  A    between atoms: _409  and  _410
REMARK  169  A    between atoms: _413  and  _415
REMARK  170  A    between atoms: _415  and  _416
REMARK  171  A    between atoms: _418  and  _420
REMARK  172  A    between atoms: _420  and  _421
REMARK  173  A    between atoms: _420  and  _423
REMARK  174  A    between atoms: _423  and  _424
REMARK  175  A    between atoms: _427  and  _429
REMARK  176  A    between atoms: _429  and  _430
REMARK  177  A    between atoms: _429  and  _432
REMARK  178  A    between atoms: _432  and  _433
REMARK  179  A    between atoms: _436  and  _438
REMARK  180  A    between atoms: _438  and  _439
REMARK  181  A    between atoms: _438  and  _441
REMARK  182  A    between atoms: _441  and  _442
REMARK  183  A    between atoms: _447  and  _449
REMARK  184  A    between atoms: _449  and  _450
REMARK  185  A    between atoms: _449  and  _452
REMARK  186  A    between atoms: _452  and  _453
REMARK  187  A    between atoms: _456  and  _458
REMARK  188  A    between atoms: _458  and  _459
REMARK  189  A    between atoms: _458  and  _461
REMARK  190  A    between atoms: _461  and  _462
REMARK  191  A    between atoms: _465  and  _467
REMARK  192  A    between atoms: _467  and  _468
REMARK  193  A    between atoms: _470  and  _472
REMARK  194  A    between atoms: _472  and  _473
REMARK  195  A    between atoms: _472  and  _475
REMARK  196  A    between atoms: _475  and  _476
REMARK  197  A    between atoms: _476  and  _477
REMARK  198  A    between atoms: _477  and  _478
REMARK  199  A    between atoms: _487  and  _489
REMARK  200  A    between atoms: _489  and  _490
REMARK  201  A    between atoms: _492  and  _494
REMARK  202  A    between atoms: _494  and  _495
REMARK  203  A    between atoms: _494  and  _497
REMARK  204  A    between atoms: _497  and  _498
REMARK  205  A    between atoms: _501  and  _503
REMARK  206  A    between atoms: _503  and  _504
REMARK  207  A    between atoms: _503  and  _512
REMARK  208  A    between atoms: _504  and  _505
REMARK  209  A    between atoms: _505  and  _506
REMARK  210  A    between atoms: _506  and  _507
REMARK  211  A    between atoms: _507  and  _508
REMARK  212  A    between atoms: _514  and  _516
REMARK  213  A    between atoms: _516  and  _517
REMARK  214  A    between atoms: _516  and  _519
REMARK  215  A    between atoms: _519  and  _520
REMARK  216  A    between atoms: _525  and  _527
REMARK  217  A    between atoms: _527  and  _528
REMARK  218  A    between atoms: _527  and  _530
REMARK  219  A    between atoms: _530  and  _531
REMARK  220  A    between atoms: _531  and  _532
REMARK  221  A    between atoms: _534  and  _536
REMARK  222  A    between atoms: _536  and  _537
REMARK  223  A    between atoms: _540  and  _542
REMARK  224  A    between atoms: _542  and  _543
REMARK  225  A    between atoms: _542  and  _545
REMARK  226  A    between atoms: _548  and  _550
REMARK  227  A    between atoms: _550  and  _551
REMARK  228  A    between atoms: _550  and  _553
REMARK  229  A    between atoms: _553  and  _554
REMARK  230  A    between atoms: _554  and  _555
REMARK  231  A    between atoms: _560  and  _562
REMARK  232  A    between atoms: _562  and  _563
REMARK  233  A    between atoms: _562  and  _565
REMARK  234  A    between atoms: _565  and  _566
REMARK                            x       y       z     vdW  Elec       q    Type
REMARK                         _______ _______ _______ _____ _____    ______ ____
ROOT
ATOM      1  O   HOH     1      32.826 -56.847  -6.228  0.00  0.00    +0.000 OA
ENDROOT
TORSDOF 0
REMARK  Name = ../refined-set-2016/4fut/4fut_pocket.pdb
REMARK  234 active torsions:
REMARK  status: ('A' for Active; 'I' for Inactive)
REMARK    1  A    between atoms: _1  and  _3
REMARK    2  A    between atoms: _3  and  _4
REMARK    3  A    between atoms: _3  and  _6
REMARK    4  A    between atoms: _6  and  _7
REMARK    5  A    between atoms: _12  and  _13
REMARK    6  A    between atoms: _15  and  _17
REMARK    7  A    between atoms: _17  and  _18
REMARK    8  A    between atoms: _17  and  _20
REMARK    9  A    between atoms: _20  and  _21
REMARK   10  A    between atoms: _24  and  _26
REMARK   11  A    between atoms: _26  and  _27
REMARK   12  A    between atoms: _26  and  _29
REMARK   13  A    between atoms: _29  and  _30
REMARK   14  A    between atoms: _35  and  _36
REMARK   15  A    between atoms: _38  and  _40
REMARK   16  A    between atoms: _40  and  _41
REMARK   17  A    between atoms: _40  and  _43
REMARK   18  A    between atoms: _43  and  _44
REMARK   19  A    between atoms: _47  and  _49
REMARK   20  A    between atoms: _49  and  _50
REMARK   21  A    between atoms: _49  and  _52
REMARK   22  A    between atoms: _52  and  _53
REMARK   23  A    between atoms: _55  and  _57
REMARK   24  A    between atoms: _57  and  _58
REMARK   25  A    between atoms: _60  and  _62
REMARK   26  A    between atoms: _62  and  _63
REMARK   27  A    between atoms: _62  and  _65
REMARK   28  A    between atoms: _65  and  _66
REMARK   29  A    between atoms: _69  and  _71
REMARK   30  A    between atoms: _71  and  _72
REMARK   31  A    between atoms: _71  and  _74
REMARK   32  A    between atoms: _74  and  _75
REMARK   33  A    between atoms: _78  and  _80
REMARK   34  A    between atoms: _80  and  _81
REMARK   35  A    between atoms: _83  and  _85
REMARK   36  A    between atoms: _85  and  _86
REMARK   37  A    between atoms: _85  and  _88
REMARK   38  A    between atoms: _88  and  _89
REMARK   39  A    between atoms: _89  and  _90
REMARK   40  A    between atoms: _90  and  _91
REMARK   41  A    between atoms: _100  and  _102
REMARK   42  A    between atoms: _102  and  _103
REMARK   43  A    between atoms: _102  and  _105
REMARK   44  A    between atoms: _105  and  _106
REMARK   45  A    between atoms: _108  and  _110
REMARK   46  A    between atoms: _110  and  _111
REMARK   47  A    between atoms: _110  and  _119
REMARK   48  A    between atoms: _111  and  _112
REMARK   49  A    between atoms: _112  and  _113
REMARK   50  A    between atoms: _113  and  _114
REMARK   51  A    between atoms: _114  and  _115
REMARK   52  A    between atoms: _121  and  _123
REMARK   53  A    between atoms: _123  and  _124
REMARK   54  A    between atoms: _123  and  _126
REMARK   55  A    between atoms: _126  and  _127
REMARK   56  A    between atoms: _132  and  _134
REMARK   57  A    between atoms: _134  and  _135
REMARK   58  A    between atoms: _134  and  _137
REMARK   59  A    between atoms: _137  and  _138
REMARK   60  A    between atoms: _141  and  _143
REMARK   61  A    between atoms: _143  and  _144
REMARK   62  A    between atoms: _143  and  _146
REMARK   63  A    between atoms: _146  and  _147
REMARK   64  A    between atoms: _153  and  _154
REMARK   65  A    between atoms: _159  and  _161
REMARK   66  A    between atoms: _161  and  _162
REMARK   67  A    between atoms: _161  and  _164
REMARK   68  A    between atoms: _164  and  _165
REMARK   69  A    between atoms: _167  and  _169
REMARK   70  A    between atoms: _169  and  _170
REMARK   71  A    between atoms: _172  and  _174
REMARK   72  A    between atoms: _174  and  _175
REMARK   73  A    between atoms: _174  and  _177
REMARK   74  A    between atoms: _177  and  _178
REMARK   75  A    between atoms: _180  and  _182
REMARK   76  A    between atoms: _182  and  _183
REMARK   77  A    between atoms: _187  and  _188
REMARK   78  A    between atoms: _193  and  _195
REMARK   79  A    between atoms: _195  and  _196
REMARK   80  A    between atoms: _195  and  _198
REMARK   81  A    between atoms: _198  and  _199
REMARK   82  A    between atoms: _202  and  _204
REMARK   83  A    between atoms: _204  and  _205
REMARK   84  A    between atoms: _204  and  _207
REMARK   85  A    between atoms: _207  and  _208
REMARK   86  A    between atoms: _211  and  _213
REMARK   87  A    between atoms: _213  and  _214
REMARK   88  A    between atoms: _213  and  _216
REMARK   89  A    between atoms: _216  and  _217
REMARK   90  A    between atoms: _217  and  _218
REMARK   91  A    between atoms: _221  and  _223
REMARK   92  A    between atoms: _223  and  _224
REMARK   93  A    between atoms: _223  and  _226
REMARK   94  A    between atoms: _226  and  _227
REMARK   95  A    between atoms: _227  and  _228
REMARK   96  A    between atoms: _228  and  _229
REMARK   97  A    between atoms: _238  and  _240
REMARK   98  A    between atoms: _240  and  _241
REMARK   99  A    between atoms: _240  and  _243
REMARK  100  A    between atoms: _243  and  _244
REMARK  101  A    between atoms: _249  and  _250
REMARK  102  A    between atoms: _252  and  _254
REMARK  103  A    between atoms: _254  and  _255
REMARK  104  A    between atoms: _257  and  _259
REMARK  105  A    between atoms: _259  and  _260
REMARK  106  A    between atoms: _259  and  _262
REMARK  107  A    between atoms: _262  and  _263
REMARK  108  A    between atoms: _263  and  _264
REMARK  109  A    between atoms: _266  and  _268
REMARK  110  A    between atoms: _268  and  _269
REMARK  111  A    between atoms: _268  and  _271
REMARK  112  A    between atoms: _271  and  _272
REMARK  113  A    between atoms: _275  and  _277
REMARK  114  A    between atoms: _277  and  _278
REMARK  115  A    between atoms: _277  and  _280
REMARK  116  A    between atoms: _280  and  _281
REMARK  117  A    between atoms: _281  and  _282
REMARK  118  A    between atoms: _285  and  _287
REMARK  119  A    between atoms: _287  and  _288
REMARK  120  A    between atoms: _287  and  _290
REMARK  121  A    between atoms: _290  and  _291
REMARK  122  A    between atoms: _294  and  _296
REMARK  123  A    between atoms: _296  and  _297
REMARK  124  A    between atoms: _296  and  _299
REMARK  125  A    between atoms: _299  and  _300
REMARK  126  A    between atoms: _305  and  _307
REMARK  127  A    between atoms: _307  and  _308
REMARK  128  A    between atoms: _307  and  _310
REMARK  129  A    between atoms: _310  and  _311
REMARK  130  A    between atoms: _311  and  _312
REMARK  131  A    between atoms: _314  and  _316
REMARK  132  A    between atoms: _316  and  _317
REMARK  133  A    between atoms: _316  and  _319
REMARK  134  A    between atoms: _319  and  _320
REMARK  135  A    between atoms: _325  and  _327
REMARK  136  A    between atoms: _327  and  _328
REMARK  137  A    between atoms: _327  and  _330
REMARK  138  A    between atoms: _330  and  _331
REMARK  139  A    between atoms: _334  and  _336
REMARK  140  A    between atoms: _336  and  _337
REMARK  141  A    between atoms: _336  and  _339
REMARK  142  A    between atoms: _339  and  _340
REMARK  143  A    between atoms: _345  and  _347
REMARK  144  A    between atoms: _347  and  _348
REMARK  145  A    between atoms: _350  and  _352
REMARK  146  A    between atoms: _352  and  _353
REMARK  147  A    between atoms: _356  and  _358
REMARK  148  A    between atoms: _358  and  _359
REMARK  149  A    between atoms: _358  and  _361
REMARK  150  A    between atoms: _364  and  _366
REMARK  151  A    between atoms: _366  and  _367
REMARK  152  A    between atoms: _369  and  _371
REMARK  153  A    between atoms: _371  and  _372
REMARK  154  A    between atoms: _371  and  _374
REMARK  155  A    between atoms: _374  and  _375
REMARK  156  A    between atoms: _380  and  _381
REMARK  157  A    between atoms: _383  and  _385
REMARK  158  A    between atoms: _385  and  _386
REMARK  159  A    between atoms: _385  and  _388
REMARK  160  A    between atoms: _388  and  _389
REMARK  161  A    between atoms: _395  and  _397
REMARK  162  A    between atoms: _397  and  _398
REMARK  163  A    between atoms: _397  and  _400
REMARK  164  A    between atoms: _400  and  _401
REMARK  165  A    between atoms: _404  and  _406
REMARK  166  A    between atoms: _406  and  _407
REMARK  167  A    between atoms: _406  and  _409
REMARK  168  A    between atoms: _409  and  _410
REMARK  169  A    between atoms: _413  and  _415
REMARK  170  A    between atoms: _415  and  _416
REMARK  171  A    between atoms: _418  and  _420
REMARK  172  A    between atoms: _420  and  _421
REMARK  173  A    between atoms: _420  and  _423
REMARK  174  A    between atoms: _423  and  _424
REMARK  175  A    between atoms: _427  and  _429
REMARK  176  A    between atoms: _429  and  _430
REMARK  177  A    between atoms: _429  and  _432
REMARK  178  A    between atoms: _432  and  _433
REMARK  179  A    between atoms: _436  and  _438
REMARK  180  A    between atoms: _438  and  _439
REMARK  181  A    between atoms: _438  and  _441
REMARK  182  A    between atoms: _441  and  _442
REMARK  183  A    between atoms: _447  and  _449
REMARK  184  A    between atoms: _449  and  _450
REMARK  185  A    between atoms: _449  and  _452
REMARK  186  A    between atoms: _452  and  _453
REMARK  187  A    between atoms: _456  and  _458
REMARK  188  A    between atoms: _458  and  _459
REMARK  189  A    between atoms: _458  and  _461
REMARK  190  A    between atoms: _461  and  _462
REMARK  191  A    between atoms: _465  and  _467
REMARK  192  A    between atoms: _467  and  _468
REMARK  193  A    between atoms: _470  and  _472
REMARK  194  A    between atoms: _472  and  _473
REMARK  195  A    between atoms: _472  and  _475
REMARK  196  A    between atoms: _475  and  _476
REMARK  197  A    between atoms: _476  and  _477
REMARK  198  A    between atoms: _477  and  _478
REMARK  199  A    between atoms: _487  and  _489
REMARK  200  A    between atoms: _489  and  _490
REMARK  201  A    between atoms: _492  and  _494
REMARK  202  A    between atoms: _494  and  _495
REMARK  203  A    between atoms: _494  and  _497
REMARK  204  A    between atoms: _497  and  _498
REMARK  205  A    between atoms: _501  and  _503
REMARK  206  A    between atoms: _503  and  _504
REMARK  207  A    between atoms: _503  and  _512
REMARK  208  A    between atoms: _504  and  _505
REMARK  209  A    between atoms: _505  and  _506
REMARK  210  A    between atoms: _506  and  _507
REMARK  211  A    between atoms: _507  and  _508
REMARK  212  A    between atoms: _514  and  _516
REMARK  213  A    between atoms: _516  and  _517
REMARK  214  A    between atoms: _516  and  _519
REMARK  215  A    between atoms: _519  and  _520
REMARK  216  A    between atoms: _525  and  _527
REMARK  217  A    between atoms: _527  and  _528
REMARK  218  A    between atoms: _527  and  _530
REMARK  219  A    between atoms: _530  and  _531
REMARK  220  A    between atoms: _531  and  _532
REMARK  221  A    between atoms: _534  and  _536
REMARK  222  A    between atoms: _536  and  _537
REMARK  223  A    between atoms: _540  and  _542
REMARK  224  A    between atoms: _542  and  _543
REMARK  225  A    between atoms: _542  and  _545
REMARK  226  A    between atoms: _548  and  _550
REMARK  227  A    between atoms: _550  and  _551
REMARK  228  A    between atoms: _550  and  _553
REMARK  229  A    between atoms: _553  and  _554
REMARK  230  A    between atoms: _554  and  _555
REMARK  231  A    between atoms: _560  and  _562
REMARK  232  A    between atoms: _562  and  _563
REMARK  233  A    between atoms: _562  and  _565
REMARK  234  A    between atoms: _565  and  _566
REMARK                            x       y       z     vdW  Elec       q    Type
REMARK                         _______ _______ _______ _____ _____    ______ ____
ROOT
ATOM      1  O   HOH     1      40.293 -56.567  -9.728  0.00  0.00    +0.000 OA
ENDROOT
TORSDOF 0
REMARK  Name = ../refined-set-2016/4fut/4fut_pocket.pdb
REMARK  234 active torsions:
REMARK  status: ('A' for Active; 'I' for Inactive)
REMARK    1  A    between atoms: _1  and  _3
REMARK    2  A    between atoms: _3  and  _4
REMARK    3  A    between atoms: _3  and  _6
REMARK    4  A    between atoms: _6  and  _7
REMARK    5  A    between atoms: _12  and  _13
REMARK    6  A    between atoms: _15  and  _17
REMARK    7  A    between atoms: _17  and  _18
REMARK    8  A    between atoms: _17  and  _20
REMARK    9  A    between atoms: _20  and  _21
REMARK   10  A    between atoms: _24  and  _26
REMARK   11  A    between atoms: _26  and  _27
REMARK   12  A    between atoms: _26  and  _29
REMARK   13  A    between atoms: _29  and  _30
REMARK   14  A    between atoms: _35  and  _36
REMARK   15  A    between atoms: _38  and  _40
REMARK   16  A    between atoms: _40  and  _41
REMARK   17  A    between atoms: _40  and  _43
REMARK   18  A    between atoms: _43  and  _44
REMARK   19  A    between atoms: _47  and  _49
REMARK   20  A    between atoms: _49  and  _50
REMARK   21  A    between atoms: _49  and  _52
REMARK   22  A    between atoms: _52  and  _53
REMARK   23  A    between atoms: _55  and  _57
REMARK   24  A    between atoms: _57  and  _58
REMARK   25  A    between atoms: _60  and  _62
REMARK   26  A    between atoms: _62  and  _63
REMARK   27  A    between atoms: _62  and  _65
REMARK   28  A    between atoms: _65  and  _66
REMARK   29  A    between atoms: _69  and  _71
REMARK   30  A    between atoms: _71  and  _72
REMARK   31  A    between atoms: _71  and  _74
REMARK   32  A    between atoms: _74  and  _75
REMARK   33  A    between atoms: _78  and  _80
REMARK   34  A    between atoms: _80  and  _81
REMARK   35  A    between atoms: _83  and  _85
REMARK   36  A    between atoms: _85  and  _86
REMARK   37  A    between atoms: _85  and  _88
REMARK   38  A    between atoms: _88  and  _89
REMARK   39  A    between atoms: _89  and  _90
REMARK   40  A    between atoms: _90  and  _91
REMARK   41  A    between atoms: _100  and  _102
REMARK   42  A    between atoms: _102  and  _103
REMARK   43  A    between atoms: _102  and  _105
REMARK   44  A    between atoms: _105  and  _106
REMARK   45  A    between atoms: _108  and  _110
REMARK   46  A    between atoms: _110  and  _111
REMARK   47  A    between atoms: _110  and  _119
REMARK   48  A    between atoms: _111  and  _112
REMARK   49  A    between atoms: _112  and  _113
REMARK   50  A    between atoms: _113  and  _114
REMARK   51  A    between atoms: _114  and  _115
REMARK   52  A    between atoms: _121  and  _123
REMARK   53  A    between atoms: _123  and  _124
REMARK   54  A    between atoms: _123  and  _126
REMARK   55  A    between atoms: _126  and  _127
REMARK   56  A    between atoms: _132  and  _134
REMARK   57  A    between atoms: _134  and  _135
REMARK   58  A    between atoms: _134  and  _137
REMARK   59  A    between atoms: _137  and  _138
REMARK   60  A    between atoms: _141  and  _143
REMARK   61  A    between atoms: _143  and  _144
REMARK   62  A    between atoms: _143  and  _146
REMARK   63  A    between atoms: _146  and  _147
REMARK   64  A    between atoms: _153  and  _154
REMARK   65  A    between atoms: _159  and  _161
REMARK   66  A    between atoms: _161  and  _162
REMARK   67  A    between atoms: _161  and  _164
REMARK   68  A    between atoms: _164  and  _165
REMARK   69  A    between atoms: _167  and  _169
REMARK   70  A    between atoms: _169  and  _170
REMARK   71  A    between atoms: _172  and  _174
REMARK   72  A    between atoms: _174  and  _175
REMARK   73  A    between atoms: _174  and  _177
REMARK   74  A    between atoms: _177  and  _178
REMARK   75  A    between atoms: _180  and  _182
REMARK   76  A    between atoms: _182  and  _183
REMARK   77  A    between atoms: _187  and  _188
REMARK   78  A    between atoms: _193  and  _195
REMARK   79  A    between atoms: _195  and  _196
REMARK   80  A    between atoms: _195  and  _198
REMARK   81  A    between atoms: _198  and  _199
REMARK   82  A    between atoms: _202  and  _204
REMARK   83  A    between atoms: _204  and  _205
REMARK   84  A    between atoms: _204  and  _207
REMARK   85  A    between atoms: _207  and  _208
REMARK   86  A    between atoms: _211  and  _213
REMARK   87  A    between atoms: _213  and  _214
REMARK   88  A    between atoms: _213  and  _216
REMARK   89  A    between atoms: _216  and  _217
REMARK   90  A    between atoms: _217  and  _218
REMARK   91  A    between atoms: _221  and  _223
REMARK   92  A    between atoms: _223  and  _224
REMARK   93  A    between atoms: _223  and  _226
REMARK   94  A    between atoms: _226  and  _227
REMARK   95  A    between atoms: _227  and  _228
REMARK   96  A    between atoms: _228  and  _229
REMARK   97  A    between atoms: _238  and  _240
REMARK   98  A    between atoms: _240  and  _241
REMARK   99  A    between atoms: _240  and  _243
REMARK  100  A    between atoms: _243  and  _244
REMARK  101  A    between atoms: _249  and  _250
REMARK  102  A    between atoms: _252  and  _254
REMARK  103  A    between atoms: _254  and  _255
REMARK  104  A    between atoms: _257  and  _259
REMARK  105  A    between atoms: _259  and  _260
REMARK  106  A    between atoms: _259  and  _262
REMARK  107  A    between atoms: _262  and  _263
REMARK  108  A    between atoms: _263  and  _264
REMARK  109  A    between atoms: _266  and  _268
REMARK  110  A    between atoms: _268  and  _269
REMARK  111  A    between atoms: _268  and  _271
REMARK  112  A    between atoms: _271  and  _272
REMARK  113  A    between atoms: _275  and  _277
REMARK  114  A    between atoms: _277  and  _278
REMARK  115  A    between atoms: _277  and  _280
REMARK  116  A    between atoms: _280  and  _281
REMARK  117  A    between atoms: _281  and  _282
REMARK  118  A    between atoms: _285  and  _287
REMARK  119  A    between atoms: _287  and  _288
REMARK  120  A    between atoms: _287  and  _290
REMARK  121  A    between atoms: _290  and  _291
REMARK  122  A    between atoms: _294  and  _296
REMARK  123  A    between atoms: _296  and  _297
REMARK  124  A    between atoms: _296  and  _299
REMARK  125  A    between atoms: _299  and  _300
REMARK  126  A    between atoms: _305  and  _307
REMARK  127  A    between atoms: _307  and  _308
REMARK  128  A    between atoms: _307  and  _310
REMARK  129  A    between atoms: _310  and  _311
REMARK  130  A    between atoms: _311  and  _312
REMARK  131  A    between atoms: _314  and  _316
REMARK  132  A    between atoms: _316  and  _317
REMARK  133  A    between atoms: _316  and  _319
REMARK  134  A    between atoms: _319  and  _320
REMARK  135  A    between atoms: _325  and  _327
REMARK  136  A    between atoms: _327  and  _328
REMARK  137  A    between atoms: _327  and  _330
REMARK  138  A    between atoms: _330  and  _331
REMARK  139  A    between atoms: _334  and  _336
REMARK  140  A    between atoms: _336  and  _337
REMARK  141  A    between atoms: _336  and  _339
REMARK  142  A    between atoms: _339  and  _340
REMARK  143  A    between atoms: _345  and  _347
REMARK  144  A    between atoms: _347  and  _348
REMARK  145  A    between atoms: _350  and  _352
REMARK  146  A    between atoms: _352  and  _353
REMARK  147  A    between atoms: _356  and  _358
REMARK  148  A    between atoms: _358  and  _359
REMARK  149  A    between atoms: _358  and  _361
REMARK  150  A    between atoms: _364  and  _366
REMARK  151  A    between atoms: _366  and  _367
REMARK  152  A    between atoms: _369  and  _371
REMARK  153  A    between atoms: _371  and  _372
REMARK  154  A    between atoms: _371  and  _374
REMARK  155  A    between atoms: _374  and  _375
REMARK  156  A    between atoms: _380  and  _381
REMARK  157  A    between atoms: _383  and  _385
REMARK  158  A    between atoms: _385  and  _386
REMARK  159  A    between atoms: _385  and  _388
REMARK  160  A    between atoms: _388  and  _389
REMARK  161  A    between atoms: _395  and  _397
REMARK  162  A    between atoms: _397  and  _398
REMARK  163  A    between atoms: _397  and  _400
REMARK  164  A    between atoms: _400  and  _401
REMARK  165  A    between atoms: _404  and  _406
REMARK  166  A    between atoms: _406  and  _407
REMARK  167  A    between atoms: _406  and  _409
REMARK  168  A    between atoms: _409  and  _410
REMARK  169  A    between atoms: _413  and  _415
REMARK  170  A    between atoms: _415  and  _416
REMARK  171  A    between atoms: _418  and  _420
REMARK  172  A    between atoms: _420  and  _421
REMARK  173  A    between atoms: _420  and  _423
REMARK  174  A    between atoms: _423  and  _424
REMARK  175  A    between atoms: _427  and  _429
REMARK  176  A    between atoms: _429  and  _430
REMARK  177  A    between atoms: _429  and  _432
REMARK  178  A    between atoms: _432  and  _433
REMARK  179  A    between atoms: _436  and  _438
REMARK  180  A    between atoms: _438  and  _439
REMARK  181  A    between atoms: _438  and  _441
REMARK  182  A    between atoms: _441  and  _442
REMARK  183  A    between atoms: _447  and  _449
REMARK  184  A    between atoms: _449  and  _450
REMARK  185  A    between atoms: _449  and  _452
REMARK  186  A    between atoms: _452  and  _453
REMARK  187  A    between atoms: _456  and  _458
REMARK  188  A    between atoms: _458  and  _459
REMARK  189  A    between atoms: _458  and  _461
REMARK  190  A    between atoms: _461  and  _462
REMARK  191  A    between atoms: _465  and  _467
REMARK  192  A    between atoms: _467  and  _468
REMARK  193  A    between atoms: _470  and  _472
REMARK  194  A    between atoms: _472  and  _473
REMARK  195  A    between atoms: _472  and  _475
REMARK  196  A    between atoms: _475  and  _476
REMARK  197  A    between atoms: _476  and  _477
REMARK  198  A    between atoms: _477  and  _478
REMARK  199  A    between atoms: _487  and  _489
REMARK  200  A    between atoms: _489  and  _490
REMARK  201  A    between atoms: _492  and  _494
REMARK  202  A    between atoms: _494  and  _495
REMARK  203  A    between atoms: _494  and  _497
REMARK  204  A    between atoms: _497  and  _498
REMARK  205  A    between atoms: _501  and  _503
REMARK  206  A    between atoms: _503  and  _504
REMARK  207  A    between atoms: _503  and  _512
REMARK  208  A    between atoms: _504  and  _505
REMARK  209  A    between atoms: _505  and  _506
REMARK  210  A    between atoms: _506  and  _507
REMARK  211  A    between atoms: _507  and  _508
REMARK  212  A    between atoms: _514  and  _516
REMARK  213  A    between atoms: _516  and  _517
REMARK  214  A    between atoms: _516  and  _519
REMARK  215  A    between atoms: _519  and  _520
REMARK  216  A    between atoms: _525  and  _527
REMARK  217  A    between atoms: _527  and  _528
REMARK  218  A    between atoms: _527  and  _530
REMARK  219  A    between atoms: _530  and  _531
REMARK  220  A    between atoms: _531  and  _532
REMARK  221  A    between atoms: _534  and  _536
REMARK  222  A    between atoms: _536  and  _537
REMARK  223  A    between atoms: _540  and  _542
REMARK  224  A    between atoms: _542  and  _543
REMARK  225  A    between atoms: _542  and  _545
REMARK  226  A    between atoms: _548  and  _550
REMARK  227  A    between atoms: _550  and  _551
REMARK  228  A    between atoms: _550  and  _553
REMARK  229  A    between atoms: _553  and  _554
REMARK  230  A    between atoms: _554  and  _555
REMARK  231  A    between atoms: _560  and  _562
REMARK  232  A    between atoms: _562  and  _563
REMARK  233  A    between atoms: _562  and  _565
REMARK  234  A    between atoms: _565  and  _566
REMARK                            x       y       z     vdW  Elec       q    Type
REMARK                         _______ _______ _______ _____ _____    ______ ____
ROOT
ATOM      1  O   HOH     1      48.354 -49.468  -6.255  0.00  0.00    +0.000 OA
ENDROOT
TORSDOF 0
REMARK  Name = ../refined-set-2016/4fut/4fut_pocket.pdb
REMARK  234 active torsions:
REMARK  status: ('A' for Active; 'I' for Inactive)
REMARK    1  A    between atoms: _1  and  _3
REMARK    2  A    between atoms: _3  and  _4
REMARK    3  A    between atoms: _3  and  _6
REMARK    4  A    between atoms: _6  and  _7
REMARK    5  A    between atoms: _12  and  _13
REMARK    6  A    between atoms: _15  and  _17
REMARK    7  A    between atoms: _17  and  _18
REMARK    8  A    between atoms: _17  and  _20
REMARK    9  A    between atoms: _20  and  _21
REMARK   10  A    between atoms: _24  and  _26
REMARK   11  A    between atoms: _26  and  _27
REMARK   12  A    between atoms: _26  and  _29
REMARK   13  A    between atoms: _29  and  _30
REMARK   14  A    between atoms: _35  and  _36
REMARK   15  A    between atoms: _38  and  _40
REMARK   16  A    between atoms: _40  and  _41
REMARK   17  A    between atoms: _40  and  _43
REMARK   18  A    between atoms: _43  and  _44
REMARK   19  A    between atoms: _47  and  _49
REMARK   20  A    between atoms: _49  and  _50
REMARK   21  A    between atoms: _49  and  _52
REMARK   22  A    between atoms: _52  and  _53
REMARK   23  A    between atoms: _55  and  _57
REMARK   24  A    between atoms: _57  and  _58
REMARK   25  A    between atoms: _60  and  _62
REMARK   26  A    between atoms: _62  and  _63
REMARK   27  A    between atoms: _62  and  _65
REMARK   28  A    between atoms: _65  and  _66
REMARK   29  A    between atoms: _69  and  _71
REMARK   30  A    between atoms: _71  and  _72
REMARK   31  A    between atoms: _71  and  _74
REMARK   32  A    between atoms: _74  and  _75
REMARK   33  A    between atoms: _78  and  _80
REMARK   34  A    between atoms: _80  and  _81
REMARK   35  A    between atoms: _83  and  _85
REMARK   36  A    between atoms: _85  and  _86
REMARK   37  A    between atoms: _85  and  _88
REMARK   38  A    between atoms: _88  and  _89
REMARK   39  A    between atoms: _89  and  _90
REMARK   40  A    between atoms: _90  and  _91
REMARK   41  A    between atoms: _100  and  _102
REMARK   42  A    between atoms: _102  and  _103
REMARK   43  A    between atoms: _102  and  _105
REMARK   44  A    between atoms: _105  and  _106
REMARK   45  A    between atoms: _108  and  _110
REMARK   46  A    between atoms: _110  and  _111
REMARK   47  A    between atoms: _110  and  _119
REMARK   48  A    between atoms: _111  and  _112
REMARK   49  A    between atoms: _112  and  _113
REMARK   50  A    between atoms: _113  and  _114
REMARK   51  A    between atoms: _114  and  _115
REMARK   52  A    between atoms: _121  and  _123
REMARK   53  A    between atoms: _123  and  _124
REMARK   54  A    between atoms: _123  and  _126
REMARK   55  A    between atoms: _126  and  _127
REMARK   56  A    between atoms: _132  and  _134
REMARK   57  A    between atoms: _134  and  _135
REMARK   58  A    between atoms: _134  and  _137
REMARK   59  A    between atoms: _137  and  _138
REMARK   60  A    between atoms: _141  and  _143
REMARK   61  A    between atoms: _143  and  _144
REMARK   62  A    between atoms: _143  and  _146
REMARK   63  A    between atoms: _146  and  _147
REMARK   64  A    between atoms: _153  and  _154
REMARK   65  A    between atoms: _159  and  _161
REMARK   66  A    between atoms: _161  and  _162
REMARK   67  A    between atoms: _161  and  _164
REMARK   68  A    between atoms: _164  and  _165
REMARK   69  A    between atoms: _167  and  _169
REMARK   70  A    between atoms: _169  and  _170
REMARK   71  A    between atoms: _172  and  _174
REMARK   72  A    between atoms: _174  and  _175
REMARK   73  A    between atoms: _174  and  _177
REMARK   74  A    between atoms: _177  and  _178
REMARK   75  A    between atoms: _180  and  _182
REMARK   76  A    between atoms: _182  and  _183
REMARK   77  A    between atoms: _187  and  _188
REMARK   78  A    between atoms: _193  and  _195
REMARK   79  A    between atoms: _195  and  _196
REMARK   80  A    between atoms: _195  and  _198
REMARK   81  A    between atoms: _198  and  _199
REMARK   82  A    between atoms: _202  and  _204
REMARK   83  A    between atoms: _204  and  _205
REMARK   84  A    between atoms: _204  and  _207
REMARK   85  A    between atoms: _207  and  _208
REMARK   86  A    between atoms: _211  and  _213
REMARK   87  A    between atoms: _213  and  _214
REMARK   88  A    between atoms: _213  and  _216
REMARK   89  A    between atoms: _216  and  _217
REMARK   90  A    between atoms: _217  and  _218
REMARK   91  A    between atoms: _221  and  _223
REMARK   92  A    between atoms: _223  and  _224
REMARK   93  A    between atoms: _223  and  _226
REMARK   94  A    between atoms: _226  and  _227
REMARK   95  A    between atoms: _227  and  _228
REMARK   96  A    between atoms: _228  and  _229
REMARK   97  A    between atoms: _238  and  _240
REMARK   98  A    between atoms: _240  and  _241
REMARK   99  A    between atoms: _240  and  _243
REMARK  100  A    between atoms: _243  and  _244
REMARK  101  A    between atoms: _249  and  _250
REMARK  102  A    between atoms: _252  and  _254
REMARK  103  A    between atoms: _254  and  _255
REMARK  104  A    between atoms: _257  and  _259
REMARK  105  A    between atoms: _259  and  _260
REMARK  106  A    between atoms: _259  and  _262
REMARK  107  A    between atoms: _262  and  _263
REMARK  108  A    between atoms: _263  and  _264
REMARK  109  A    between atoms: _266  and  _268
REMARK  110  A    between atoms: _268  and  _269
REMARK  111  A    between atoms: _268  and  _271
REMARK  112  A    between atoms: _271  and  _272
REMARK  113  A    between atoms: _275  and  _277
REMARK  114  A    between atoms: _277  and  _278
REMARK  115  A    between atoms: _277  and  _280
REMARK  116  A    between atoms: _280  and  _281
REMARK  117  A    between atoms: _281  and  _282
REMARK  118  A    between atoms: _285  and  _287
REMARK  119  A    between atoms: _287  and  _288
REMARK  120  A    between atoms: _287  and  _290
REMARK  121  A    between atoms: _290  and  _291
REMARK  122  A    between atoms: _294  and  _296
REMARK  123  A    between atoms: _296  and  _297
REMARK  124  A    between atoms: _296  and  _299
REMARK  125  A    between atoms: _299  and  _300
REMARK  126  A    between atoms: _305  and  _307
REMARK  127  A    between atoms: _307  and  _308
REMARK  128  A    between atoms: _307  and  _310
REMARK  129  A    between atoms: _310  and  _311
REMARK  130  A    between atoms: _311  and  _312
REMARK  131  A    between atoms: _314  and  _316
REMARK  132  A    between atoms: _316  and  _317
REMARK  133  A    between atoms: _316  and  _319
REMARK  134  A    between atoms: _319  and  _320
REMARK  135  A    between atoms: _325  and  _327
REMARK  136  A    between atoms: _327  and  _328
REMARK  137  A    between atoms: _327  and  _330
REMARK  138  A    between atoms: _330  and  _331
REMARK  139  A    between atoms: _334  and  _336
REMARK  140  A    between atoms: _336  and  _337
REMARK  141  A    between atoms: _336  and  _339
REMARK  142  A    between atoms: _339  and  _340
REMARK  143  A    between atoms: _345  and  _347
REMARK  144  A    between atoms: _347  and  _348
REMARK  145  A    between atoms: _350  and  _352
REMARK  146  A    between atoms: _352  and  _353
REMARK  147  A    between atoms: _356  and  _358
REMARK  148  A    between atoms: _358  and  _359
REMARK  149  A    between atoms: _358  and  _361
REMARK  150  A    between atoms: _364  and  _366
REMARK  151  A    between atoms: _366  and  _367
REMARK  152  A    between atoms: _369  and  _371
REMARK  153  A    between atoms: _371  and  _372
REMARK  154  A    between atoms: _371  and  _374
REMARK  155  A    between atoms: _374  and  _375
REMARK  156  A    between atoms: _380  and  _381
REMARK  157  A    between atoms: _383  and  _385
REMARK  158  A    between atoms: _385  and  _386
REMARK  159  A    between atoms: _385  and  _388
REMARK  160  A    between atoms: _388  and  _389
REMARK  161  A    between atoms: _395  and  _397
REMARK  162  A    between atoms: _397  and  _398
REMARK  163  A    between atoms: _397  and  _400
REMARK  164  A    between atoms: _400  and  _401
REMARK  165  A    between atoms: _404  and  _406
REMARK  166  A    between atoms: _406  and  _407
REMARK  167  A    between atoms: _406  and  _409
REMARK  168  A    between atoms: _409  and  _410
REMARK  169  A    between atoms: _413  and  _415
REMARK  170  A    between atoms: _415  and  _416
REMARK  171  A    between atoms: _418  and  _420
REMARK  172  A    between atoms: _420  and  _421
REMARK  173  A    between atoms: _420  and  _423
REMARK  174  A    between atoms: _423  and  _424
REMARK  175  A    between atoms: _427  and  _429
REMARK  176  A    between atoms: _429  and  _430
REMARK  177  A    between atoms: _429  and  _432
REMARK  178  A    between atoms: _432  and  _433
REMARK  179  A    between atoms: _436  and  _438
REMARK  180  A    between atoms: _438  and  _439
REMARK  181  A    between atoms: _438  and  _441
REMARK  182  A    between atoms: _441  and  _442
REMARK  183  A    between atoms: _447  and  _449
REMARK  184  A    between atoms: _449  and  _450
REMARK  185  A    between atoms: _449  and  _452
REMARK  186  A    between atoms: _452  and  _453
REMARK  187  A    between atoms: _456  and  _458
REMARK  188  A    between atoms: _458  and  _459
REMARK  189  A    between atoms: _458  and  _461
REMARK  190  A    between atoms: _461  and  _462
REMARK  191  A    between atoms: _465  and  _467
REMARK  192  A    between atoms: _467  and  _468
REMARK  193  A    between atoms: _470  and  _472
REMARK  194  A    between atoms: _472  and  _473
REMARK  195  A    between atoms: _472  and  _475
REMARK  196  A    between atoms: _475  and  _476
REMARK  197  A    between atoms: _476  and  _477
REMARK  198  A    between atoms: _477  and  _478
REMARK  199  A    between atoms: _487  and  _489
REMARK  200  A    between atoms: _489  and  _490
REMARK  201  A    between atoms: _492  and  _494
REMARK  202  A    between atoms: _494  and  _495
REMARK  203  A    between atoms: _494  and  _497
REMARK  204  A    between atoms: _497  and  _498
REMARK  205  A    between atoms: _501  and  _503
REMARK  206  A    between atoms: _503  and  _504
REMARK  207  A    between atoms: _503  and  _512
REMARK  208  A    between atoms: _504  and  _505
REMARK  209  A    between atoms: _505  and  _506
REMARK  210  A    between atoms: _506  and  _507
REMARK  211  A    between atoms: _507  and  _508
REMARK  212  A    between atoms: _514  and  _516
REMARK  213  A    between atoms: _516  and  _517
REMARK  214  A    between atoms: _516  and  _519
REMARK  215  A    between atoms: _519  and  _520
REMARK  216  A    between atoms: _525  and  _527
REMARK  217  A    between atoms: _527  and  _528
REMARK  218  A    between atoms: _527  and  _530
REMARK  219  A    between atoms: _530  and  _531
REMARK  220  A    between atoms: _531  and  _532
REMARK  221  A    between atoms: _534  and  _536
REMARK  222  A    between atoms: _536  and  _537
REMARK  223  A    between atoms: _540  and  _542
REMARK  224  A    between atoms: _542  and  _543
REMARK  225  A    between atoms: _542  and  _545
REMARK  226  A    between atoms: _548  and  _550
REMARK  227  A    between atoms: _550  and  _551
REMARK  228  A    between atoms: _550  and  _553
REMARK  229  A    between atoms: _553  and  _554
REMARK  230  A    between atoms: _554  and  _555
REMARK  231  A    between atoms: _560  and  _562
REMARK  232  A    between atoms: _562  and  _563
REMARK  233  A    between atoms: _562  and  _565
REMARK  234  A    between atoms: _565  and  _566
REMARK                            x       y       z     vdW  Elec       q    Type
REMARK                         _______ _______ _______ _____ _____    ______ ____
ROOT
ATOM      1  O   HOH     1      33.228 -55.694  -2.243  0.00  0.00    +0.000 OA
ENDROOT
TORSDOF 0
REMARK  Name = ../refined-set-2016/4fut/4fut_pocket.pdb
REMARK  234 active torsions:
REMARK  status: ('A' for Active; 'I' for Inactive)
REMARK    1  A    between atoms: _1  and  _3
REMARK    2  A    between atoms: _3  and  _4
REMARK    3  A    between atoms: _3  and  _6
REMARK    4  A    between atoms: _6  and  _7
REMARK    5  A    between atoms: _12  and  _13
REMARK    6  A    between atoms: _15  and  _17
REMARK    7  A    between atoms: _17  and  _18
REMARK    8  A    between atoms: _17  and  _20
REMARK    9  A    between atoms: _20  and  _21
REMARK   10  A    between atoms: _24  and  _26
REMARK   11  A    between atoms: _26  and  _27
REMARK   12  A    between atoms: _26  and  _29
REMARK   13  A    between atoms: _29  and  _30
REMARK   14  A    between atoms: _35  and  _36
REMARK   15  A    between atoms: _38  and  _40
REMARK   16  A    between atoms: _40  and  _41
REMARK   17  A    between atoms: _40  and  _43
REMARK   18  A    between atoms: _43  and  _44
REMARK   19  A    between atoms: _47  and  _49
REMARK   20  A    between atoms: _49  and  _50
REMARK   21  A    between atoms: _49  and  _52
REMARK   22  A    between atoms: _52  and  _53
REMARK   23  A    between atoms: _55  and  _57
REMARK   24  A    between atoms: _57  and  _58
REMARK   25  A    between atoms: _60  and  _62
REMARK   26  A    between atoms: _62  and  _63
REMARK   27  A    between atoms: _62  and  _65
REMARK   28  A    between atoms: _65  and  _66
REMARK   29  A    between atoms: _69  and  _71
REMARK   30  A    between atoms: _71  and  _72
REMARK   31  A    between atoms: _71  and  _74
REMARK   32  A    between atoms: _74  and  _75
REMARK   33  A    between atoms: _78  and  _80
REMARK   34  A    between atoms: _80  and  _81
REMARK   35  A    between atoms: _83  and  _85
REMARK   36  A    between atoms: _85  and  _86
REMARK   37  A    between atoms: _85  and  _88
REMARK   38  A    between atoms: _88  and  _89
REMARK   39  A    between atoms: _89  and  _90
REMARK   40  A    between atoms: _90  and  _91
REMARK   41  A    between atoms: _100  and  _102
REMARK   42  A    between atoms: _102  and  _103
REMARK   43  A    between atoms: _102  and  _105
REMARK   44  A    between atoms: _105  and  _106
REMARK   45  A    between atoms: _108  and  _110
REMARK   46  A    between atoms: _110  and  _111
REMARK   47  A    between atoms: _110  and  _119
REMARK   48  A    between atoms: _111  and  _112
REMARK   49  A    between atoms: _112  and  _113
REMARK   50  A    between atoms: _113  and  _114
REMARK   51  A    between atoms: _114  and  _115
REMARK   52  A    between atoms: _121  and  _123
REMARK   53  A    between atoms: _123  and  _124
REMARK   54  A    between atoms: _123  and  _126
REMARK   55  A    between atoms: _126  and  _127
REMARK   56  A    between atoms: _132  and  _134
REMARK   57  A    between atoms: _134  and  _135
REMARK   58  A    between atoms: _134  and  _137
REMARK   59  A    between atoms: _137  and  _138
REMARK   60  A    between atoms: _141  and  _143
REMARK   61  A    between atoms: _143  and  _144
REMARK   62  A    between atoms: _143  and  _146
REMARK   63  A    between atoms: _146  and  _147
REMARK   64  A    between atoms: _153  and  _154
REMARK   65  A    between atoms: _159  and  _161
REMARK   66  A    between atoms: _161  and  _162
REMARK   67  A    between atoms: _161  and  _164
REMARK   68  A    between atoms: _164  and  _165
REMARK   69  A    between atoms: _167  and  _169
REMARK   70  A    between atoms: _169  and  _170
REMARK   71  A    between atoms: _172  and  _174
REMARK   72  A    between atoms: _174  and  _175
REMARK   73  A    between atoms: _174  and  _177
REMARK   74  A    between atoms: _177  and  _178
REMARK   75  A    between atoms: _180  and  _182
REMARK   76  A    between atoms: _182  and  _183
REMARK   77  A    between atoms: _187  and  _188
REMARK   78  A    between atoms: _193  and  _195
REMARK   79  A    between atoms: _195  and  _196
REMARK   80  A    between atoms: _195  and  _198
REMARK   81  A    between atoms: _198  and  _199
REMARK   82  A    between atoms: _202  and  _204
REMARK   83  A    between atoms: _204  and  _205
REMARK   84  A    between atoms: _204  and  _207
REMARK   85  A    between atoms: _207  and  _208
REMARK   86  A    between atoms: _211  and  _213
REMARK   87  A    between atoms: _213  and  _214
REMARK   88  A    between atoms: _213  and  _216
REMARK   89  A    between atoms: _216  and  _217
REMARK   90  A    between atoms: _217  and  _218
REMARK   91  A    between atoms: _221  and  _223
REMARK   92  A    between atoms: _223  and  _224
REMARK   93  A    between atoms: _223  and  _226
REMARK   94  A    between atoms: _226  and  _227
REMARK   95  A    between atoms: _227  and  _228
REMARK   96  A    between atoms: _228  and  _229
REMARK   97  A    between atoms: _238  and  _240
REMARK   98  A    between atoms: _240  and  _241
REMARK   99  A    between atoms: _240  and  _243
REMARK  100  A    between atoms: _243  and  _244
REMARK  101  A    between atoms: _249  and  _250
REMARK  102  A    between atoms: _252  and  _254
REMARK  103  A    between atoms: _254  and  _255
REMARK  104  A    between atoms: _257  and  _259
REMARK  105  A    between atoms: _259  and  _260
REMARK  106  A    between atoms: _259  and  _262
REMARK  107  A    between atoms: _262  and  _263
REMARK  108  A    between atoms: _263  and  _264
REMARK  109  A    between atoms: _266  and  _268
REMARK  110  A    between atoms: _268  and  _269
REMARK  111  A    between atoms: _268  and  _271
REMARK  112  A    between atoms: _271  and  _272
REMARK  113  A    between atoms: _275  and  _277
REMARK  114  A    between atoms: _277  and  _278
REMARK  115  A    between atoms: _277  and  _280
REMARK  116  A    between atoms: _280  and  _281
REMARK  117  A    between atoms: _281  and  _282
REMARK  118  A    between atoms: _285  and  _287
REMARK  119  A    between atoms: _287  and  _288
REMARK  120  A    between atoms: _287  and  _290
REMARK  121  A    between atoms: _290  and  _291
REMARK  122  A    between atoms: _294  and  _296
REMARK  123  A    between atoms: _296  and  _297
REMARK  124  A    between atoms: _296  and  _299
REMARK  125  A    between atoms: _299  and  _300
REMARK  126  A    between atoms: _305  and  _307
REMARK  127  A    between atoms: _307  and  _308
REMARK  128  A    between atoms: _307  and  _310
REMARK  129  A    between atoms: _310  and  _311
REMARK  130  A    between atoms: _311  and  _312
REMARK  131  A    between atoms: _314  and  _316
REMARK  132  A    between atoms: _316  and  _317
REMARK  133  A    between atoms: _316  and  _319
REMARK  134  A    between atoms: _319  and  _320
REMARK  135  A    between atoms: _325  and  _327
REMARK  136  A    between atoms: _327  and  _328
REMARK  137  A    between atoms: _327  and  _330
REMARK  138  A    between atoms: _330  and  _331
REMARK  139  A    between atoms: _334  and  _336
REMARK  140  A    between atoms: _336  and  _337
REMARK  141  A    between atoms: _336  and  _339
REMARK  142  A    between atoms: _339  and  _340
REMARK  143  A    between atoms: _345  and  _347
REMARK  144  A    between atoms: _347  and  _348
REMARK  145  A    between atoms: _350  and  _352
REMARK  146  A    between atoms: _352  and  _353
REMARK  147  A    between atoms: _356  and  _358
REMARK  148  A    between atoms: _358  and  _359
REMARK  149  A    between atoms: _358  and  _361
REMARK  150  A    between atoms: _364  and  _366
REMARK  151  A    between atoms: _366  and  _367
REMARK  152  A    between atoms: _369  and  _371
REMARK  153  A    between atoms: _371  and  _372
REMARK  154  A    between atoms: _371  and  _374
REMARK  155  A    between atoms: _374  and  _375
REMARK  156  A    between atoms: _380  and  _381
REMARK  157  A    between atoms: _383  and  _385
REMARK  158  A    between atoms: _385  and  _386
REMARK  159  A    between atoms: _385  and  _388
REMARK  160  A    between atoms: _388  and  _389
REMARK  161  A    between atoms: _395  and  _397
REMARK  162  A    between atoms: _397  and  _398
REMARK  163  A    between atoms: _397  and  _400
REMARK  164  A    between atoms: _400  and  _401
REMARK  165  A    between atoms: _404  and  _406
REMARK  166  A    between atoms: _406  and  _407
REMARK  167  A    between atoms: _406  and  _409
REMARK  168  A    between atoms: _409  and  _410
REMARK  169  A    between atoms: _413  and  _415
REMARK  170  A    between atoms: _415  and  _416
REMARK  171  A    between atoms: _418  and  _420
REMARK  172  A    between atoms: _420  and  _421
REMARK  173  A    between atoms: _420  and  _423
REMARK  174  A    between atoms: _423  and  _424
REMARK  175  A    between atoms: _427  and  _429
REMARK  176  A    between atoms: _429  and  _430
REMARK  177  A    between atoms: _429  and  _432
REMARK  178  A    between atoms: _432  and  _433
REMARK  179  A    between atoms: _436  and  _438
REMARK  180  A    between atoms: _438  and  _439
REMARK  181  A    between atoms: _438  and  _441
REMARK  182  A    between atoms: _441  and  _442
REMARK  183  A    between atoms: _447  and  _449
REMARK  184  A    between atoms: _449  and  _450
REMARK  185  A    between atoms: _449  and  _452
REMARK  186  A    between atoms: _452  and  _453
REMARK  187  A    between atoms: _456  and  _458
REMARK  188  A    between atoms: _458  and  _459
REMARK  189  A    between atoms: _458  and  _461
REMARK  190  A    between atoms: _461  and  _462
REMARK  191  A    between atoms: _465  and  _467
REMARK  192  A    between atoms: _467  and  _468
REMARK  193  A    between atoms: _470  and  _472
REMARK  194  A    between atoms: _472  and  _473
REMARK  195  A    between atoms: _472  and  _475
REMARK  196  A    between atoms: _475  and  _476
REMARK  197  A    between atoms: _476  and  _477
REMARK  198  A    between atoms: _477  and  _478
REMARK  199  A    between atoms: _487  and  _489
REMARK  200  A    between atoms: _489  and  _490
REMARK  201  A    between atoms: _492  and  _494
REMARK  202  A    between atoms: _494  and  _495
REMARK  203  A    between atoms: _494  and  _497
REMARK  204  A    between atoms: _497  and  _498
REMARK  205  A    between atoms: _501  and  _503
REMARK  206  A    between atoms: _503  and  _504
REMARK  207  A    between atoms: _503  and  _512
REMARK  208  A    between atoms: _504  and  _505
REMARK  209  A    between atoms: _505  and  _506
REMARK  210  A    between atoms: _506  and  _507
REMARK  211  A    between atoms: _507  and  _508
REMARK  212  A    between atoms: _514  and  _516
REMARK  213  A    between atoms: _516  and  _517
REMARK  214  A    between atoms: _516  and  _519
REMARK  215  A    between atoms: _519  and  _520
REMARK  216  A    between atoms: _525  and  _527
REMARK  217  A    between atoms: _527  and  _528
REMARK  218  A    between atoms: _527  and  _530
REMARK  219  A    between atoms: _530  and  _531
REMARK  220  A    between atoms: _531  and  _532
REMARK  221  A    between atoms: _534  and  _536
REMARK  222  A    between atoms: _536  and  _537
REMARK  223  A    between atoms: _540  and  _542
REMARK  224  A    between atoms: _542  and  _543
REMARK  225  A    between atoms: _542  and  _545
REMARK  226  A    between atoms: _548  and  _550
REMARK  227  A    between atoms: _550  and  _551
REMARK  228  A    between atoms: _550  and  _553
REMARK  229  A    between atoms: _553  and  _554
REMARK  230  A    between atoms: _554  and  _555
REMARK  231  A    between atoms: _560  and  _562
REMARK  232  A    between atoms: _562  and  _563
REMARK  233  A    between atoms: _562  and  _565
REMARK  234  A    between atoms: _565  and  _566
REMARK                            x       y       z     vdW  Elec       q    Type
REMARK                         _______ _______ _______ _____ _____    ______ ____
ROOT
ATOM      1  O   HOH     1      37.435 -45.286   1.188  0.00  0.00    +0.000 OA
ENDROOT
TORSDOF 0
REMARK  Name = ../refined-set-2016/4fut/4fut_pocket.pdb
REMARK  234 active torsions:
REMARK  status: ('A' for Active; 'I' for Inactive)
REMARK    1  A    between atoms: _1  and  _3
REMARK    2  A    between atoms: _3  and  _4
REMARK    3  A    between atoms: _3  and  _6
REMARK    4  A    between atoms: _6  and  _7
REMARK    5  A    between atoms: _12  and  _13
REMARK    6  A    between atoms: _15  and  _17
REMARK    7  A    between atoms: _17  and  _18
REMARK    8  A    between atoms: _17  and  _20
REMARK    9  A    between atoms: _20  and  _21
REMARK   10  A    between atoms: _24  and  _26
REMARK   11  A    between atoms: _26  and  _27
REMARK   12  A    between atoms: _26  and  _29
REMARK   13  A    between atoms: _29  and  _30
REMARK   14  A    between atoms: _35  and  _36
REMARK   15  A    between atoms: _38  and  _40
REMARK   16  A    between atoms: _40  and  _41
REMARK   17  A    between atoms: _40  and  _43
REMARK   18  A    between atoms: _43  and  _44
REMARK   19  A    between atoms: _47  and  _49
REMARK   20  A    between atoms: _49  and  _50
REMARK   21  A    between atoms: _49  and  _52
REMARK   22  A    between atoms: _52  and  _53
REMARK   23  A    between atoms: _55  and  _57
REMARK   24  A    between atoms: _57  and  _58
REMARK   25  A    between atoms: _60  and  _62
REMARK   26  A    between atoms: _62  and  _63
REMARK   27  A    between atoms: _62  and  _65
REMARK   28  A    between atoms: _65  and  _66
REMARK   29  A    between atoms: _69  and  _71
REMARK   30  A    between atoms: _71  and  _72
REMARK   31  A    between atoms: _71  and  _74
REMARK   32  A    between atoms: _74  and  _75
REMARK   33  A    between atoms: _78  and  _80
REMARK   34  A    between atoms: _80  and  _81
REMARK   35  A    between atoms: _83  and  _85
REMARK   36  A    between atoms: _85  and  _86
REMARK   37  A    between atoms: _85  and  _88
REMARK   38  A    between atoms: _88  and  _89
REMARK   39  A    between atoms: _89  and  _90
REMARK   40  A    between atoms: _90  and  _91
REMARK   41  A    between atoms: _100  and  _102
REMARK   42  A    between atoms: _102  and  _103
REMARK   43  A    between atoms: _102  and  _105
REMARK   44  A    between atoms: _105  and  _106
REMARK   45  A    between atoms: _108  and  _110
REMARK   46  A    between atoms: _110  and  _111
REMARK   47  A    between atoms: _110  and  _119
REMARK   48  A    between atoms: _111  and  _112
REMARK   49  A    between atoms: _112  and  _113
REMARK   50  A    between atoms: _113  and  _114
REMARK   51  A    between atoms: _114  and  _115
REMARK   52  A    between atoms: _121  and  _123
REMARK   53  A    between atoms: _123  and  _124
REMARK   54  A    between atoms: _123  and  _126
REMARK   55  A    between atoms: _126  and  _127
REMARK   56  A    between atoms: _132  and  _134
REMARK   57  A    between atoms: _134  and  _135
REMARK   58  A    between atoms: _134  and  _137
REMARK   59  A    between atoms: _137  and  _138
REMARK   60  A    between atoms: _141  and  _143
REMARK   61  A    between atoms: _143  and  _144
REMARK   62  A    between atoms: _143  and  _146
REMARK   63  A    between atoms: _146  and  _147
REMARK   64  A    between atoms: _153  and  _154
REMARK   65  A    between atoms: _159  and  _161
REMARK   66  A    between atoms: _161  and  _162
REMARK   67  A    between atoms: _161  and  _164
REMARK   68  A    between atoms: _164  and  _165
REMARK   69  A    between atoms: _167  and  _169
REMARK   70  A    between atoms: _169  and  _170
REMARK   71  A    between atoms: _172  and  _174
REMARK   72  A    between atoms: _174  and  _175
REMARK   73  A    between atoms: _174  and  _177
REMARK   74  A    between atoms: _177  and  _178
REMARK   75  A    between atoms: _180  and  _182
REMARK   76  A    between atoms: _182  and  _183
REMARK   77  A    between atoms: _187  and  _188
REMARK   78  A    between atoms: _193  and  _195
REMARK   79  A    between atoms: _195  and  _196
REMARK   80  A    between atoms: _195  and  _198
REMARK   81  A    between atoms: _198  and  _199
REMARK   82  A    between atoms: _202  and  _204
REMARK   83  A    between atoms: _204  and  _205
REMARK   84  A    between atoms: _204  and  _207
REMARK   85  A    between atoms: _207  and  _208
REMARK   86  A    between atoms: _211  and  _213
REMARK   87  A    between atoms: _213  and  _214
REMARK   88  A    between atoms: _213  and  _216
REMARK   89  A    between atoms: _216  and  _217
REMARK   90  A    between atoms: _217  and  _218
REMARK   91  A    between atoms: _221  and  _223
REMARK   92  A    between atoms: _223  and  _224
REMARK   93  A    between atoms: _223  and  _226
REMARK   94  A    between atoms: _226  and  _227
REMARK   95  A    between atoms: _227  and  _228
REMARK   96  A    between atoms: _228  and  _229
REMARK   97  A    between atoms: _238  and  _240
REMARK   98  A    between atoms: _240  and  _241
REMARK   99  A    between atoms: _240  and  _243
REMARK  100  A    between atoms: _243  and  _244
REMARK  101  A    between atoms: _249  and  _250
REMARK  102  A    between atoms: _252  and  _254
REMARK  103  A    between atoms: _254  and  _255
REMARK  104  A    between atoms: _257  and  _259
REMARK  105  A    between atoms: _259  and  _260
REMARK  106  A    between atoms: _259  and  _262
REMARK  107  A    between atoms: _262  and  _263
REMARK  108  A    between atoms: _263  and  _264
REMARK  109  A    between atoms: _266  and  _268
REMARK  110  A    between atoms: _268  and  _269
REMARK  111  A    between atoms: _268  and  _271
REMARK  112  A    between atoms: _271  and  _272
REMARK  113  A    between atoms: _275  and  _277
REMARK  114  A    between atoms: _277  and  _278
REMARK  115  A    between atoms: _277  and  _280
REMARK  116  A    between atoms: _280  and  _281
REMARK  117  A    between atoms: _281  and  _282
REMARK  118  A    between atoms: _285  and  _287
REMARK  119  A    between atoms: _287  and  _288
REMARK  120  A    between atoms: _287  and  _290
REMARK  121  A    between atoms: _290  and  _291
REMARK  122  A    between atoms: _294  and  _296
REMARK  123  A    between atoms: _296  and  _297
REMARK  124  A    between atoms: _296  and  _299
REMARK  125  A    between atoms: _299  and  _300
REMARK  126  A    between atoms: _305  and  _307
REMARK  127  A    between atoms: _307  and  _308
REMARK  128  A    between atoms: _307  and  _310
REMARK  129  A    between atoms: _310  and  _311
REMARK  130  A    between atoms: _311  and  _312
REMARK  131  A    between atoms: _314  and  _316
REMARK  132  A    between atoms: _316  and  _317
REMARK  133  A    between atoms: _316  and  _319
REMARK  134  A    between atoms: _319  and  _320
REMARK  135  A    between atoms: _325  and  _327
REMARK  136  A    between atoms: _327  and  _328
REMARK  137  A    between atoms: _327  and  _330
REMARK  138  A    between atoms: _330  and  _331
REMARK  139  A    between atoms: _334  and  _336
REMARK  140  A    between atoms: _336  and  _337
REMARK  141  A    between atoms: _336  and  _339
REMARK  142  A    between atoms: _339  and  _340
REMARK  143  A    between atoms: _345  and  _347
REMARK  144  A    between atoms: _347  and  _348
REMARK  145  A    between atoms: _350  and  _352
REMARK  146  A    between atoms: _352  and  _353
REMARK  147  A    between atoms: _356  and  _358
REMARK  148  A    between atoms: _358  and  _359
REMARK  149  A    between atoms: _358  and  _361
REMARK  150  A    between atoms: _364  and  _366
REMARK  151  A    between atoms: _366  and  _367
REMARK  152  A    between atoms: _369  and  _371
REMARK  153  A    between atoms: _371  and  _372
REMARK  154  A    between atoms: _371  and  _374
REMARK  155  A    between atoms: _374  and  _375
REMARK  156  A    between atoms: _380  and  _381
REMARK  157  A    between atoms: _383  and  _385
REMARK  158  A    between atoms: _385  and  _386
REMARK  159  A    between atoms: _385  and  _388
REMARK  160  A    between atoms: _388  and  _389
REMARK  161  A    between atoms: _395  and  _397
REMARK  162  A    between atoms: _397  and  _398
REMARK  163  A    between atoms: _397  and  _400
REMARK  164  A    between atoms: _400  and  _401
REMARK  165  A    between atoms: _404  and  _406
REMARK  166  A    between atoms: _406  and  _407
REMARK  167  A    between atoms: _406  and  _409
REMARK  168  A    between atoms: _409  and  _410
REMARK  169  A    between atoms: _413  and  _415
REMARK  170  A    between atoms: _415  and  _416
REMARK  171  A    between atoms: _418  and  _420
REMARK  172  A    between atoms: _420  and  _421
REMARK  173  A    between atoms: _420  and  _423
REMARK  174  A    between atoms: _423  and  _424
REMARK  175  A    between atoms: _427  and  _429
REMARK  176  A    between atoms: _429  and  _430
REMARK  177  A    between atoms: _429  and  _432
REMARK  178  A    between atoms: _432  and  _433
REMARK  179  A    between atoms: _436  and  _438
REMARK  180  A    between atoms: _438  and  _439
REMARK  181  A    between atoms: _438  and  _441
REMARK  182  A    between atoms: _441  and  _442
REMARK  183  A    between atoms: _447  and  _449
REMARK  184  A    between atoms: _449  and  _450
REMARK  185  A    between atoms: _449  and  _452
REMARK  186  A    between atoms: _452  and  _453
REMARK  187  A    between atoms: _456  and  _458
REMARK  188  A    between atoms: _458  and  _459
REMARK  189  A    between atoms: _458  and  _461
REMARK  190  A    between atoms: _461  and  _462
REMARK  191  A    between atoms: _465  and  _467
REMARK  192  A    between atoms: _467  and  _468
REMARK  193  A    between atoms: _470  and  _472
REMARK  194  A    between atoms: _472  and  _473
REMARK  195  A    between atoms: _472  and  _475
REMARK  196  A    between atoms: _475  and  _476
REMARK  197  A    between atoms: _476  and  _477
REMARK  198  A    between atoms: _477  and  _478
REMARK  199  A    between atoms: _487  and  _489
REMARK  200  A    between atoms: _489  and  _490
REMARK  201  A    between atoms: _492  and  _494
REMARK  202  A    between atoms: _494  and  _495
REMARK  203  A    between atoms: _494  and  _497
REMARK  204  A    between atoms: _497  and  _498
REMARK  205  A    between atoms: _501  and  _503
REMARK  206  A    between atoms: _503  and  _504
REMARK  207  A    between atoms: _503  and  _512
REMARK  208  A    between atoms: _504  and  _505
REMARK  209  A    between atoms: _505  and  _506
REMARK  210  A    between atoms: _506  and  _507
REMARK  211  A    between atoms: _507  and  _508
REMARK  212  A    between atoms: _514  and  _516
REMARK  213  A    between atoms: _516  and  _517
REMARK  214  A    between atoms: _516  and  _519
REMARK  215  A    between atoms: _519  and  _520
REMARK  216  A    between atoms: _525  and  _527
REMARK  217  A    between atoms: _527  and  _528
REMARK  218  A    between atoms: _527  and  _530
REMARK  219  A    between atoms: _530  and  _531
REMARK  220  A    between atoms: _531  and  _532
REMARK  221  A    between atoms: _534  and  _536
REMARK  222  A    between atoms: _536  and  _537
REMARK  223  A    between atoms: _540  and  _542
REMARK  224  A    between atoms: _542  and  _543
REMARK  225  A    between atoms: _542  and  _545
REMARK  226  A    between atoms: _548  and  _550
REMARK  227  A    between atoms: _550  and  _551
REMARK  228  A    between atoms: _550  and  _553
REMARK  229  A    between atoms: _553  and  _554
REMARK  230  A    between atoms: _554  and  _555
REMARK  231  A    between atoms: _560  and  _562
REMARK  232  A    between atoms: _562  and  _563
REMARK  233  A    between atoms: _562  and  _565
REMARK  234  A    between atoms: _565  and  _566
REMARK                            x       y       z     vdW  Elec       q    Type
REMARK                         _______ _______ _______ _____ _____    ______ ____
ROOT
ATOM      1  O   HOH     1      35.772 -51.169  -1.031  0.00  0.00    +0.000 OA
ENDROOT
TORSDOF 0
REMARK  Name = ../refined-set-2016/4fut/4fut_pocket.pdb
REMARK  234 active torsions:
REMARK  status: ('A' for Active; 'I' for Inactive)
REMARK    1  A    between atoms: _1  and  _3
REMARK    2  A    between atoms: _3  and  _4
REMARK    3  A    between atoms: _3  and  _6
REMARK    4  A    between atoms: _6  and  _7
REMARK    5  A    between atoms: _12  and  _13
REMARK    6  A    between atoms: _15  and  _17
REMARK    7  A    between atoms: _17  and  _18
REMARK    8  A    between atoms: _17  and  _20
REMARK    9  A    between atoms: _20  and  _21
REMARK   10  A    between atoms: _24  and  _26
REMARK   11  A    between atoms: _26  and  _27
REMARK   12  A    between atoms: _26  and  _29
REMARK   13  A    between atoms: _29  and  _30
REMARK   14  A    between atoms: _35  and  _36
REMARK   15  A    between atoms: _38  and  _40
REMARK   16  A    between atoms: _40  and  _41
REMARK   17  A    between atoms: _40  and  _43
REMARK   18  A    between atoms: _43  and  _44
REMARK   19  A    between atoms: _47  and  _49
REMARK   20  A    between atoms: _49  and  _50
REMARK   21  A    between atoms: _49  and  _52
REMARK   22  A    between atoms: _52  and  _53
REMARK   23  A    between atoms: _55  and  _57
REMARK   24  A    between atoms: _57  and  _58
REMARK   25  A    between atoms: _60  and  _62
REMARK   26  A    between atoms: _62  and  _63
REMARK   27  A    between atoms: _62  and  _65
REMARK   28  A    between atoms: _65  and  _66
REMARK   29  A    between atoms: _69  and  _71
REMARK   30  A    between atoms: _71  and  _72
REMARK   31  A    between atoms: _71  and  _74
REMARK   32  A    between atoms: _74  and  _75
REMARK   33  A    between atoms: _78  and  _80
REMARK   34  A    between atoms: _80  and  _81
REMARK   35  A    between atoms: _83  and  _85
REMARK   36  A    between atoms: _85  and  _86
REMARK   37  A    between atoms: _85  and  _88
REMARK   38  A    between atoms: _88  and  _89
REMARK   39  A    between atoms: _89  and  _90
REMARK   40  A    between atoms: _90  and  _91
REMARK   41  A    between atoms: _100  and  _102
REMARK   42  A    between atoms: _102  and  _103
REMARK   43  A    between atoms: _102  and  _105
REMARK   44  A    between atoms: _105  and  _106
REMARK   45  A    between atoms: _108  and  _110
REMARK   46  A    between atoms: _110  and  _111
REMARK   47  A    between atoms: _110  and  _119
REMARK   48  A    between atoms: _111  and  _112
REMARK   49  A    between atoms: _112  and  _113
REMARK   50  A    between atoms: _113  and  _114
REMARK   51  A    between atoms: _114  and  _115
REMARK   52  A    between atoms: _121  and  _123
REMARK   53  A    between atoms: _123  and  _124
REMARK   54  A    between atoms: _123  and  _126
REMARK   55  A    between atoms: _126  and  _127
REMARK   56  A    between atoms: _132  and  _134
REMARK   57  A    between atoms: _134  and  _135
REMARK   58  A    between atoms: _134  and  _137
REMARK   59  A    between atoms: _137  and  _138
REMARK   60  A    between atoms: _141  and  _143
REMARK   61  A    between atoms: _143  and  _144
REMARK   62  A    between atoms: _143  and  _146
REMARK   63  A    between atoms: _146  and  _147
REMARK   64  A    between atoms: _153  and  _154
REMARK   65  A    between atoms: _159  and  _161
REMARK   66  A    between atoms: _161  and  _162
REMARK   67  A    between atoms: _161  and  _164
REMARK   68  A    between atoms: _164  and  _165
REMARK   69  A    between atoms: _167  and  _169
REMARK   70  A    between atoms: _169  and  _170
REMARK   71  A    between atoms: _172  and  _174
REMARK   72  A    between atoms: _174  and  _175
REMARK   73  A    between atoms: _174  and  _177
REMARK   74  A    between atoms: _177  and  _178
REMARK   75  A    between atoms: _180  and  _182
REMARK   76  A    between atoms: _182  and  _183
REMARK   77  A    between atoms: _187  and  _188
REMARK   78  A    between atoms: _193  and  _195
REMARK   79  A    between atoms: _195  and  _196
REMARK   80  A    between atoms: _195  and  _198
REMARK   81  A    between atoms: _198  and  _199
REMARK   82  A    between atoms: _202  and  _204
REMARK   83  A    between atoms: _204  and  _205
REMARK   84  A    between atoms: _204  and  _207
REMARK   85  A    between atoms: _207  and  _208
REMARK   86  A    between atoms: _211  and  _213
REMARK   87  A    between atoms: _213  and  _214
REMARK   88  A    between atoms: _213  and  _216
REMARK   89  A    between atoms: _216  and  _217
REMARK   90  A    between atoms: _217  and  _218
REMARK   91  A    between atoms: _221  and  _223
REMARK   92  A    between atoms: _223  and  _224
REMARK   93  A    between atoms: _223  and  _226
REMARK   94  A    between atoms: _226  and  _227
REMARK   95  A    between atoms: _227  and  _228
REMARK   96  A    between atoms: _228  and  _229
REMARK   97  A    between atoms: _238  and  _240
REMARK   98  A    between atoms: _240  and  _241
REMARK   99  A    between atoms: _240  and  _243
REMARK  100  A    between atoms: _243  and  _244
REMARK  101  A    between atoms: _249  and  _250
REMARK  102  A    between atoms: _252  and  _254
REMARK  103  A    between atoms: _254  and  _255
REMARK  104  A    between atoms: _257  and  _259
REMARK  105  A    between atoms: _259  and  _260
REMARK  106  A    between atoms: _259  and  _262
REMARK  107  A    between atoms: _262  and  _263
REMARK  108  A    between atoms: _263  and  _264
REMARK  109  A    between atoms: _266  and  _268
REMARK  110  A    between atoms: _268  and  _269
REMARK  111  A    between atoms: _268  and  _271
REMARK  112  A    between atoms: _271  and  _272
REMARK  113  A    between atoms: _275  and  _277
REMARK  114  A    between atoms: _277  and  _278
REMARK  115  A    between atoms: _277  and  _280
REMARK  116  A    between atoms: _280  and  _281
REMARK  117  A    between atoms: _281  and  _282
REMARK  118  A    between atoms: _285  and  _287
REMARK  119  A    between atoms: _287  and  _288
REMARK  120  A    between atoms: _287  and  _290
REMARK  121  A    between atoms: _290  and  _291
REMARK  122  A    between atoms: _294  and  _296
REMARK  123  A    between atoms: _296  and  _297
REMARK  124  A    between atoms: _296  and  _299
REMARK  125  A    between atoms: _299  and  _300
REMARK  126  A    between atoms: _305  and  _307
REMARK  127  A    between atoms: _307  and  _308
REMARK  128  A    between atoms: _307  and  _310
REMARK  129  A    between atoms: _310  and  _311
REMARK  130  A    between atoms: _311  and  _312
REMARK  131  A    between atoms: _314  and  _316
REMARK  132  A    between atoms: _316  and  _317
REMARK  133  A    between atoms: _316  and  _319
REMARK  134  A    between atoms: _319  and  _320
REMARK  135  A    between atoms: _325  and  _327
REMARK  136  A    between atoms: _327  and  _328
REMARK  137  A    between atoms: _327  and  _330
REMARK  138  A    between atoms: _330  and  _331
REMARK  139  A    between atoms: _334  and  _336
REMARK  140  A    between atoms: _336  and  _337
REMARK  141  A    between atoms: _336  and  _339
REMARK  142  A    between atoms: _339  and  _340
REMARK  143  A    between atoms: _345  and  _347
REMARK  144  A    between atoms: _347  and  _348
REMARK  145  A    between atoms: _350  and  _352
REMARK  146  A    between atoms: _352  and  _353
REMARK  147  A    between atoms: _356  and  _358
REMARK  148  A    between atoms: _358  and  _359
REMARK  149  A    between atoms: _358  and  _361
REMARK  150  A    between atoms: _364  and  _366
REMARK  151  A    between atoms: _366  and  _367
REMARK  152  A    between atoms: _369  and  _371
REMARK  153  A    between atoms: _371  and  _372
REMARK  154  A    between atoms: _371  and  _374
REMARK  155  A    between atoms: _374  and  _375
REMARK  156  A    between atoms: _380  and  _381
REMARK  157  A    between atoms: _383  and  _385
REMARK  158  A    between atoms: _385  and  _386
REMARK  159  A    between atoms: _385  and  _388
REMARK  160  A    between atoms: _388  and  _389
REMARK  161  A    between atoms: _395  and  _397
REMARK  162  A    between atoms: _397  and  _398
REMARK  163  A    between atoms: _397  and  _400
REMARK  164  A    between atoms: _400  and  _401
REMARK  165  A    between atoms: _404  and  _406
REMARK  166  A    between atoms: _406  and  _407
REMARK  167  A    between atoms: _406  and  _409
REMARK  168  A    between atoms: _409  and  _410
REMARK  169  A    between atoms: _413  and  _415
REMARK  170  A    between atoms: _415  and  _416
REMARK  171  A    between atoms: _418  and  _420
REMARK  172  A    between atoms: _420  and  _421
REMARK  173  A    between atoms: _420  and  _423
REMARK  174  A    between atoms: _423  and  _424
REMARK  175  A    between atoms: _427  and  _429
REMARK  176  A    between atoms: _429  and  _430
REMARK  177  A    between atoms: _429  and  _432
REMARK  178  A    between atoms: _432  and  _433
REMARK  179  A    between atoms: _436  and  _438
REMARK  180  A    between atoms: _438  and  _439
REMARK  181  A    between atoms: _438  and  _441
REMARK  182  A    between atoms: _441  and  _442
REMARK  183  A    between atoms: _447  and  _449
REMARK  184  A    between atoms: _449  and  _450
REMARK  185  A    between atoms: _449  and  _452
REMARK  186  A    between atoms: _452  and  _453
REMARK  187  A    between atoms: _456  and  _458
REMARK  188  A    between atoms: _458  and  _459
REMARK  189  A    between atoms: _458  and  _461
REMARK  190  A    between atoms: _461  and  _462
REMARK  191  A    between atoms: _465  and  _467
REMARK  192  A    between atoms: _467  and  _468
REMARK  193  A    between atoms: _470  and  _472
REMARK  194  A    between atoms: _472  and  _473
REMARK  195  A    between atoms: _472  and  _475
REMARK  196  A    between atoms: _475  and  _476
REMARK  197  A    between atoms: _476  and  _477
REMARK  198  A    between atoms: _477  and  _478
REMARK  199  A    between atoms: _487  and  _489
REMARK  200  A    between atoms: _489  and  _490
REMARK  201  A    between atoms: _492  and  _494
REMARK  202  A    between atoms: _494  and  _495
REMARK  203  A    between atoms: _494  and  _497
REMARK  204  A    between atoms: _497  and  _498
REMARK  205  A    between atoms: _501  and  _503
REMARK  206  A    between atoms: _503  and  _504
REMARK  207  A    between atoms: _503  and  _512
REMARK  208  A    between atoms: _504  and  _505
REMARK  209  A    between atoms: _505  and  _506
REMARK  210  A    between atoms: _506  and  _507
REMARK  211  A    between atoms: _507  and  _508
REMARK  212  A    between atoms: _514  and  _516
REMARK  213  A    between atoms: _516  and  _517
REMARK  214  A    between atoms: _516  and  _519
REMARK  215  A    between atoms: _519  and  _520
REMARK  216  A    between atoms: _525  and  _527
REMARK  217  A    between atoms: _527  and  _528
REMARK  218  A    between atoms: _527  and  _530
REMARK  219  A    between atoms: _530  and  _531
REMARK  220  A    between atoms: _531  and  _532
REMARK  221  A    between atoms: _534  and  _536
REMARK  222  A    between atoms: _536  and  _537
REMARK  223  A    between atoms: _540  and  _542
REMARK  224  A    between atoms: _542  and  _543
REMARK  225  A    between atoms: _542  and  _545
REMARK  226  A    between atoms: _548  and  _550
REMARK  227  A    between atoms: _550  and  _551
REMARK  228  A    between atoms: _550  and  _553
REMARK  229  A    between atoms: _553  and  _554
REMARK  230  A    between atoms: _554  and  _555
REMARK  231  A    between atoms: _560  and  _562
REMARK  232  A    between atoms: _562  and  _563
REMARK  233  A    between atoms: _562  and  _565
REMARK  234  A    between atoms: _565  and  _566
REMARK                            x       y       z     vdW  Elec       q    Type
REMARK                         _______ _______ _______ _____ _____    ______ ____
ROOT
ATOM      1  O   HOH     1      35.819 -56.661  -1.565  0.00  0.00    +0.000 OA
ENDROOT
TORSDOF 0
REMARK  Name = ../refined-set-2016/4fut/4fut_pocket.pdb
REMARK  234 active torsions:
REMARK  status: ('A' for Active; 'I' for Inactive)
REMARK    1  A    between atoms: _1  and  _3
REMARK    2  A    between atoms: _3  and  _4
REMARK    3  A    between atoms: _3  and  _6
REMARK    4  A    between atoms: _6  and  _7
REMARK    5  A    between atoms: _12  and  _13
REMARK    6  A    between atoms: _15  and  _17
REMARK    7  A    between atoms: _17  and  _18
REMARK    8  A    between atoms: _17  and  _20
REMARK    9  A    between atoms: _20  and  _21
REMARK   10  A    between atoms: _24  and  _26
REMARK   11  A    between atoms: _26  and  _27
REMARK   12  A    between atoms: _26  and  _29
REMARK   13  A    between atoms: _29  and  _30
REMARK   14  A    between atoms: _35  and  _36
REMARK   15  A    between atoms: _38  and  _40
REMARK   16  A    between atoms: _40  and  _41
REMARK   17  A    between atoms: _40  and  _43
REMARK   18  A    between atoms: _43  and  _44
REMARK   19  A    between atoms: _47  and  _49
REMARK   20  A    between atoms: _49  and  _50
REMARK   21  A    between atoms: _49  and  _52
REMARK   22  A    between atoms: _52  and  _53
REMARK   23  A    between atoms: _55  and  _57
REMARK   24  A    between atoms: _57  and  _58
REMARK   25  A    between atoms: _60  and  _62
REMARK   26  A    between atoms: _62  and  _63
REMARK   27  A    between atoms: _62  and  _65
REMARK   28  A    between atoms: _65  and  _66
REMARK   29  A    between atoms: _69  and  _71
REMARK   30  A    between atoms: _71  and  _72
REMARK   31  A    between atoms: _71  and  _74
REMARK   32  A    between atoms: _74  and  _75
REMARK   33  A    between atoms: _78  and  _80
REMARK   34  A    between atoms: _80  and  _81
REMARK   35  A    between atoms: _83  and  _85
REMARK   36  A    between atoms: _85  and  _86
REMARK   37  A    between atoms: _85  and  _88
REMARK   38  A    between atoms: _88  and  _89
REMARK   39  A    between atoms: _89  and  _90
REMARK   40  A    between atoms: _90  and  _91
REMARK   41  A    between atoms: _100  and  _102
REMARK   42  A    between atoms: _102  and  _103
REMARK   43  A    between atoms: _102  and  _105
REMARK   44  A    between atoms: _105  and  _106
REMARK   45  A    between atoms: _108  and  _110
REMARK   46  A    between atoms: _110  and  _111
REMARK   47  A    between atoms: _110  and  _119
REMARK   48  A    between atoms: _111  and  _112
REMARK   49  A    between atoms: _112  and  _113
REMARK   50  A    between atoms: _113  and  _114
REMARK   51  A    between atoms: _114  and  _115
REMARK   52  A    between atoms: _121  and  _123
REMARK   53  A    between atoms: _123  and  _124
REMARK   54  A    between atoms: _123  and  _126
REMARK   55  A    between atoms: _126  and  _127
REMARK   56  A    between atoms: _132  and  _134
REMARK   57  A    between atoms: _134  and  _135
REMARK   58  A    between atoms: _134  and  _137
REMARK   59  A    between atoms: _137  and  _138
REMARK   60  A    between atoms: _141  and  _143
REMARK   61  A    between atoms: _143  and  _144
REMARK   62  A    between atoms: _143  and  _146
REMARK   63  A    between atoms: _146  and  _147
REMARK   64  A    between atoms: _153  and  _154
REMARK   65  A    between atoms: _159  and  _161
REMARK   66  A    between atoms: _161  and  _162
REMARK   67  A    between atoms: _161  and  _164
REMARK   68  A    between atoms: _164  and  _165
REMARK   69  A    between atoms: _167  and  _169
REMARK   70  A    between atoms: _169  and  _170
REMARK   71  A    between atoms: _172  and  _174
REMARK   72  A    between atoms: _174  and  _175
REMARK   73  A    between atoms: _174  and  _177
REMARK   74  A    between atoms: _177  and  _178
REMARK   75  A    between atoms: _180  and  _182
REMARK   76  A    between atoms: _182  and  _183
REMARK   77  A    between atoms: _187  and  _188
REMARK   78  A    between atoms: _193  and  _195
REMARK   79  A    between atoms: _195  and  _196
REMARK   80  A    between atoms: _195  and  _198
REMARK   81  A    between atoms: _198  and  _199
REMARK   82  A    between atoms: _202  and  _204
REMARK   83  A    between atoms: _204  and  _205
REMARK   84  A    between atoms: _204  and  _207
REMARK   85  A    between atoms: _207  and  _208
REMARK   86  A    between atoms: _211  and  _213
REMARK   87  A    between atoms: _213  and  _214
REMARK   88  A    between atoms: _213  and  _216
REMARK   89  A    between atoms: _216  and  _217
REMARK   90  A    between atoms: _217  and  _218
REMARK   91  A    between atoms: _221  and  _223
REMARK   92  A    between atoms: _223  and  _224
REMARK   93  A    between atoms: _223  and  _226
REMARK   94  A    between atoms: _226  and  _227
REMARK   95  A    between atoms: _227  and  _228
REMARK   96  A    between atoms: _228  and  _229
REMARK   97  A    between atoms: _238  and  _240
REMARK   98  A    between atoms: _240  and  _241
REMARK   99  A    between atoms: _240  and  _243
REMARK  100  A    between atoms: _243  and  _244
REMARK  101  A    between atoms: _249  and  _250
REMARK  102  A    between atoms: _252  and  _254
REMARK  103  A    between atoms: _254  and  _255
REMARK  104  A    between atoms: _257  and  _259
REMARK  105  A    between atoms: _259  and  _260
REMARK  106  A    between atoms: _259  and  _262
REMARK  107  A    between atoms: _262  and  _263
REMARK  108  A    between atoms: _263  and  _264
REMARK  109  A    between atoms: _266  and  _268
REMARK  110  A    between atoms: _268  and  _269
REMARK  111  A    between atoms: _268  and  _271
REMARK  112  A    between atoms: _271  and  _272
REMARK  113  A    between atoms: _275  and  _277
REMARK  114  A    between atoms: _277  and  _278
REMARK  115  A    between atoms: _277  and  _280
REMARK  116  A    between atoms: _280  and  _281
REMARK  117  A    between atoms: _281  and  _282
REMARK  118  A    between atoms: _285  and  _287
REMARK  119  A    between atoms: _287  and  _288
REMARK  120  A    between atoms: _287  and  _290
REMARK  121  A    between atoms: _290  and  _291
REMARK  122  A    between atoms: _294  and  _296
REMARK  123  A    between atoms: _296  and  _297
REMARK  124  A    between atoms: _296  and  _299
REMARK  125  A    between atoms: _299  and  _300
REMARK  126  A    between atoms: _305  and  _307
REMARK  127  A    between atoms: _307  and  _308
REMARK  128  A    between atoms: _307  and  _310
REMARK  129  A    between atoms: _310  and  _311
REMARK  130  A    between atoms: _311  and  _312
REMARK  131  A    between atoms: _314  and  _316
REMARK  132  A    between atoms: _316  and  _317
REMARK  133  A    between atoms: _316  and  _319
REMARK  134  A    between atoms: _319  and  _320
REMARK  135  A    between atoms: _325  and  _327
REMARK  136  A    between atoms: _327  and  _328
REMARK  137  A    between atoms: _327  and  _330
REMARK  138  A    between atoms: _330  and  _331
REMARK  139  A    between atoms: _334  and  _336
REMARK  140  A    between atoms: _336  and  _337
REMARK  141  A    between atoms: _336  and  _339
REMARK  142  A    between atoms: _339  and  _340
REMARK  143  A    between atoms: _345  and  _347
REMARK  144  A    between atoms: _347  and  _348
REMARK  145  A    between atoms: _350  and  _352
REMARK  146  A    between atoms: _352  and  _353
REMARK  147  A    between atoms: _356  and  _358
REMARK  148  A    between atoms: _358  and  _359
REMARK  149  A    between atoms: _358  and  _361
REMARK  150  A    between atoms: _364  and  _366
REMARK  151  A    between atoms: _366  and  _367
REMARK  152  A    between atoms: _369  and  _371
REMARK  153  A    between atoms: _371  and  _372
REMARK  154  A    between atoms: _371  and  _374
REMARK  155  A    between atoms: _374  and  _375
REMARK  156  A    between atoms: _380  and  _381
REMARK  157  A    between atoms: _383  and  _385
REMARK  158  A    between atoms: _385  and  _386
REMARK  159  A    between atoms: _385  and  _388
REMARK  160  A    between atoms: _388  and  _389
REMARK  161  A    between atoms: _395  and  _397
REMARK  162  A    between atoms: _397  and  _398
REMARK  163  A    between atoms: _397  and  _400
REMARK  164  A    between atoms: _400  and  _401
REMARK  165  A    between atoms: _404  and  _406
REMARK  166  A    between atoms: _406  and  _407
REMARK  167  A    between atoms: _406  and  _409
REMARK  168  A    between atoms: _409  and  _410
REMARK  169  A    between atoms: _413  and  _415
REMARK  170  A    between atoms: _415  and  _416
REMARK  171  A    between atoms: _418  and  _420
REMARK  172  A    between atoms: _420  and  _421
REMARK  173  A    between atoms: _420  and  _423
REMARK  174  A    between atoms: _423  and  _424
REMARK  175  A    between atoms: _427  and  _429
REMARK  176  A    between atoms: _429  and  _430
REMARK  177  A    between atoms: _429  and  _432
REMARK  178  A    between atoms: _432  and  _433
REMARK  179  A    between atoms: _436  and  _438
REMARK  180  A    between atoms: _438  and  _439
REMARK  181  A    between atoms: _438  and  _441
REMARK  182  A    between atoms: _441  and  _442
REMARK  183  A    between atoms: _447  and  _449
REMARK  184  A    between atoms: _449  and  _450
REMARK  185  A    between atoms: _449  and  _452
REMARK  186  A    between atoms: _452  and  _453
REMARK  187  A    between atoms: _456  and  _458
REMARK  188  A    between atoms: _458  and  _459
REMARK  189  A    between atoms: _458  and  _461
REMARK  190  A    between atoms: _461  and  _462
REMARK  191  A    between atoms: _465  and  _467
REMARK  192  A    between atoms: _467  and  _468
REMARK  193  A    between atoms: _470  and  _472
REMARK  194  A    between atoms: _472  and  _473
REMARK  195  A    between atoms: _472  and  _475
REMARK  196  A    between atoms: _475  and  _476
REMARK  197  A    between atoms: _476  and  _477
REMARK  198  A    between atoms: _477  and  _478
REMARK  199  A    between atoms: _487  and  _489
REMARK  200  A    between atoms: _489  and  _490
REMARK  201  A    between atoms: _492  and  _494
REMARK  202  A    between atoms: _494  and  _495
REMARK  203  A    between atoms: _494  and  _497
REMARK  204  A    between atoms: _497  and  _498
REMARK  205  A    between atoms: _501  and  _503
REMARK  206  A    between atoms: _503  and  _504
REMARK  207  A    between atoms: _503  and  _512
REMARK  208  A    between atoms: _504  and  _505
REMARK  209  A    between atoms: _505  and  _506
REMARK  210  A    between atoms: _506  and  _507
REMARK  211  A    between atoms: _507  and  _508
REMARK  212  A    between atoms: _514  and  _516
REMARK  213  A    between atoms: _516  and  _517
REMARK  214  A    between atoms: _516  and  _519
REMARK  215  A    between atoms: _519  and  _520
REMARK  216  A    between atoms: _525  and  _527
REMARK  217  A    between atoms: _527  and  _528
REMARK  218  A    between atoms: _527  and  _530
REMARK  219  A    between atoms: _530  and  _531
REMARK  220  A    between atoms: _531  and  _532
REMARK  221  A    between atoms: _534  and  _536
REMARK  222  A    between atoms: _536  and  _537
REMARK  223  A    between atoms: _540  and  _542
REMARK  224  A    between atoms: _542  and  _543
REMARK  225  A    between atoms: _542  and  _545
REMARK  226  A    between atoms: _548  and  _550
REMARK  227  A    between atoms: _550  and  _551
REMARK  228  A    between atoms: _550  and  _553
REMARK  229  A    between atoms: _553  and  _554
REMARK  230  A    between atoms: _554  and  _555
REMARK  231  A    between atoms: _560  and  _562
REMARK  232  A    between atoms: _562  and  _563
REMARK  233  A    between atoms: _562  and  _565
REMARK  234  A    between atoms: _565  and  _566
REMARK                            x       y       z     vdW  Elec       q    Type
REMARK                         _______ _______ _______ _____ _____    ______ ____
ROOT
ATOM      1  O   HOH     1      31.075 -60.791  -5.196  0.00  0.00    +0.000 OA
ENDROOT
TORSDOF 0
REMARK  Name = ../refined-set-2016/4fut/4fut_pocket.pdb
REMARK  234 active torsions:
REMARK  status: ('A' for Active; 'I' for Inactive)
REMARK    1  A    between atoms: _1  and  _3
REMARK    2  A    between atoms: _3  and  _4
REMARK    3  A    between atoms: _3  and  _6
REMARK    4  A    between atoms: _6  and  _7
REMARK    5  A    between atoms: _12  and  _13
REMARK    6  A    between atoms: _15  and  _17
REMARK    7  A    between atoms: _17  and  _18
REMARK    8  A    between atoms: _17  and  _20
REMARK    9  A    between atoms: _20  and  _21
REMARK   10  A    between atoms: _24  and  _26
REMARK   11  A    between atoms: _26  and  _27
REMARK   12  A    between atoms: _26  and  _29
REMARK   13  A    between atoms: _29  and  _30
REMARK   14  A    between atoms: _35  and  _36
REMARK   15  A    between atoms: _38  and  _40
REMARK   16  A    between atoms: _40  and  _41
REMARK   17  A    between atoms: _40  and  _43
REMARK   18  A    between atoms: _43  and  _44
REMARK   19  A    between atoms: _47  and  _49
REMARK   20  A    between atoms: _49  and  _50
REMARK   21  A    between atoms: _49  and  _52
REMARK   22  A    between atoms: _52  and  _53
REMARK   23  A    between atoms: _55  and  _57
REMARK   24  A    between atoms: _57  and  _58
REMARK   25  A    between atoms: _60  and  _62
REMARK   26  A    between atoms: _62  and  _63
REMARK   27  A    between atoms: _62  and  _65
REMARK   28  A    between atoms: _65  and  _66
REMARK   29  A    between atoms: _69  and  _71
REMARK   30  A    between atoms: _71  and  _72
REMARK   31  A    between atoms: _71  and  _74
REMARK   32  A    between atoms: _74  and  _75
REMARK   33  A    between atoms: _78  and  _80
REMARK   34  A    between atoms: _80  and  _81
REMARK   35  A    between atoms: _83  and  _85
REMARK   36  A    between atoms: _85  and  _86
REMARK   37  A    between atoms: _85  and  _88
REMARK   38  A    between atoms: _88  and  _89
REMARK   39  A    between atoms: _89  and  _90
REMARK   40  A    between atoms: _90  and  _91
REMARK   41  A    between atoms: _100  and  _102
REMARK   42  A    between atoms: _102  and  _103
REMARK   43  A    between atoms: _102  and  _105
REMARK   44  A    between atoms: _105  and  _106
REMARK   45  A    between atoms: _108  and  _110
REMARK   46  A    between atoms: _110  and  _111
REMARK   47  A    between atoms: _110  and  _119
REMARK   48  A    between atoms: _111  and  _112
REMARK   49  A    between atoms: _112  and  _113
REMARK   50  A    between atoms: _113  and  _114
REMARK   51  A    between atoms: _114  and  _115
REMARK   52  A    between atoms: _121  and  _123
REMARK   53  A    between atoms: _123  and  _124
REMARK   54  A    between atoms: _123  and  _126
REMARK   55  A    between atoms: _126  and  _127
REMARK   56  A    between atoms: _132  and  _134
REMARK   57  A    between atoms: _134  and  _135
REMARK   58  A    between atoms: _134  and  _137
REMARK   59  A    between atoms: _137  and  _138
REMARK   60  A    between atoms: _141  and  _143
REMARK   61  A    between atoms: _143  and  _144
REMARK   62  A    between atoms: _143  and  _146
REMARK   63  A    between atoms: _146  and  _147
REMARK   64  A    between atoms: _153  and  _154
REMARK   65  A    between atoms: _159  and  _161
REMARK   66  A    between atoms: _161  and  _162
REMARK   67  A    between atoms: _161  and  _164
REMARK   68  A    between atoms: _164  and  _165
REMARK   69  A    between atoms: _167  and  _169
REMARK   70  A    between atoms: _169  and  _170
REMARK   71  A    between atoms: _172  and  _174
REMARK   72  A    between atoms: _174  and  _175
REMARK   73  A    between atoms: _174  and  _177
REMARK   74  A    between atoms: _177  and  _178
REMARK   75  A    between atoms: _180  and  _182
REMARK   76  A    between atoms: _182  and  _183
REMARK   77  A    between atoms: _187  and  _188
REMARK   78  A    between atoms: _193  and  _195
REMARK   79  A    between atoms: _195  and  _196
REMARK   80  A    between atoms: _195  and  _198
REMARK   81  A    between atoms: _198  and  _199
REMARK   82  A    between atoms: _202  and  _204
REMARK   83  A    between atoms: _204  and  _205
REMARK   84  A    between atoms: _204  and  _207
REMARK   85  A    between atoms: _207  and  _208
REMARK   86  A    between atoms: _211  and  _213
REMARK   87  A    between atoms: _213  and  _214
REMARK   88  A    between atoms: _213  and  _216
REMARK   89  A    between atoms: _216  and  _217
REMARK   90  A    between atoms: _217  and  _218
REMARK   91  A    between atoms: _221  and  _223
REMARK   92  A    between atoms: _223  and  _224
REMARK   93  A    between atoms: _223  and  _226
REMARK   94  A    between atoms: _226  and  _227
REMARK   95  A    between atoms: _227  and  _228
REMARK   96  A    between atoms: _228  and  _229
REMARK   97  A    between atoms: _238  and  _240
REMARK   98  A    between atoms: _240  and  _241
REMARK   99  A    between atoms: _240  and  _243
REMARK  100  A    between atoms: _243  and  _244
REMARK  101  A    between atoms: _249  and  _250
REMARK  102  A    between atoms: _252  and  _254
REMARK  103  A    between atoms: _254  and  _255
REMARK  104  A    between atoms: _257  and  _259
REMARK  105  A    between atoms: _259  and  _260
REMARK  106  A    between atoms: _259  and  _262
REMARK  107  A    between atoms: _262  and  _263
REMARK  108  A    between atoms: _263  and  _264
REMARK  109  A    between atoms: _266  and  _268
REMARK  110  A    between atoms: _268  and  _269
REMARK  111  A    between atoms: _268  and  _271
REMARK  112  A    between atoms: _271  and  _272
REMARK  113  A    between atoms: _275  and  _277
REMARK  114  A    between atoms: _277  and  _278
REMARK  115  A    between atoms: _277  and  _280
REMARK  116  A    between atoms: _280  and  _281
REMARK  117  A    between atoms: _281  and  _282
REMARK  118  A    between atoms: _285  and  _287
REMARK  119  A    between atoms: _287  and  _288
REMARK  120  A    between atoms: _287  and  _290
REMARK  121  A    between atoms: _290  and  _291
REMARK  122  A    between atoms: _294  and  _296
REMARK  123  A    between atoms: _296  and  _297
REMARK  124  A    between atoms: _296  and  _299
REMARK  125  A    between atoms: _299  and  _300
REMARK  126  A    between atoms: _305  and  _307
REMARK  127  A    between atoms: _307  and  _308
REMARK  128  A    between atoms: _307  and  _310
REMARK  129  A    between atoms: _310  and  _311
REMARK  130  A    between atoms: _311  and  _312
REMARK  131  A    between atoms: _314  and  _316
REMARK  132  A    between atoms: _316  and  _317
REMARK  133  A    between atoms: _316  and  _319
REMARK  134  A    between atoms: _319  and  _320
REMARK  135  A    between atoms: _325  and  _327
REMARK  136  A    between atoms: _327  and  _328
REMARK  137  A    between atoms: _327  and  _330
REMARK  138  A    between atoms: _330  and  _331
REMARK  139  A    between atoms: _334  and  _336
REMARK  140  A    between atoms: _336  and  _337
REMARK  141  A    between atoms: _336  and  _339
REMARK  142  A    between atoms: _339  and  _340
REMARK  143  A    between atoms: _345  and  _347
REMARK  144  A    between atoms: _347  and  _348
REMARK  145  A    between atoms: _350  and  _352
REMARK  146  A    between atoms: _352  and  _353
REMARK  147  A    between atoms: _356  and  _358
REMARK  148  A    between atoms: _358  and  _359
REMARK  149  A    between atoms: _358  and  _361
REMARK  150  A    between atoms: _364  and  _366
REMARK  151  A    between atoms: _366  and  _367
REMARK  152  A    between atoms: _369  and  _371
REMARK  153  A    between atoms: _371  and  _372
REMARK  154  A    between atoms: _371  and  _374
REMARK  155  A    between atoms: _374  and  _375
REMARK  156  A    between atoms: _380  and  _381
REMARK  157  A    between atoms: _383  and  _385
REMARK  158  A    between atoms: _385  and  _386
REMARK  159  A    between atoms: _385  and  _388
REMARK  160  A    between atoms: _388  and  _389
REMARK  161  A    between atoms: _395  and  _397
REMARK  162  A    between atoms: _397  and  _398
REMARK  163  A    between atoms: _397  and  _400
REMARK  164  A    between atoms: _400  and  _401
REMARK  165  A    between atoms: _404  and  _406
REMARK  166  A    between atoms: _406  and  _407
REMARK  167  A    between atoms: _406  and  _409
REMARK  168  A    between atoms: _409  and  _410
REMARK  169  A    between atoms: _413  and  _415
REMARK  170  A    between atoms: _415  and  _416
REMARK  171  A    between atoms: _418  and  _420
REMARK  172  A    between atoms: _420  and  _421
REMARK  173  A    between atoms: _420  and  _423
REMARK  174  A    between atoms: _423  and  _424
REMARK  175  A    between atoms: _427  and  _429
REMARK  176  A    between atoms: _429  and  _430
REMARK  177  A    between atoms: _429  and  _432
REMARK  178  A    between atoms: _432  and  _433
REMARK  179  A    between atoms: _436  and  _438
REMARK  180  A    between atoms: _438  and  _439
REMARK  181  A    between atoms: _438  and  _441
REMARK  182  A    between atoms: _441  and  _442
REMARK  183  A    between atoms: _447  and  _449
REMARK  184  A    between atoms: _449  and  _450
REMARK  185  A    between atoms: _449  and  _452
REMARK  186  A    between atoms: _452  and  _453
REMARK  187  A    between atoms: _456  and  _458
REMARK  188  A    between atoms: _458  and  _459
REMARK  189  A    between atoms: _458  and  _461
REMARK  190  A    between atoms: _461  and  _462
REMARK  191  A    between atoms: _465  and  _467
REMARK  192  A    between atoms: _467  and  _468
REMARK  193  A    between atoms: _470  and  _472
REMARK  194  A    between atoms: _472  and  _473
REMARK  195  A    between atoms: _472  and  _475
REMARK  196  A    between atoms: _475  and  _476
REMARK  197  A    between atoms: _476  and  _477
REMARK  198  A    between atoms: _477  and  _478
REMARK  199  A    between atoms: _487  and  _489
REMARK  200  A    between atoms: _489  and  _490
REMARK  201  A    between atoms: _492  and  _494
REMARK  202  A    between atoms: _494  and  _495
REMARK  203  A    between atoms: _494  and  _497
REMARK  204  A    between atoms: _497  and  _498
REMARK  205  A    between atoms: _501  and  _503
REMARK  206  A    between atoms: _503  and  _504
REMARK  207  A    between atoms: _503  and  _512
REMARK  208  A    between atoms: _504  and  _505
REMARK  209  A    between atoms: _505  and  _506
REMARK  210  A    between atoms: _506  and  _507
REMARK  211  A    between atoms: _507  and  _508
REMARK  212  A    between atoms: _514  and  _516
REMARK  213  A    between atoms: _516  and  _517
REMARK  214  A    between atoms: _516  and  _519
REMARK  215  A    between atoms: _519  and  _520
REMARK  216  A    between atoms: _525  and  _527
REMARK  217  A    between atoms: _527  and  _528
REMARK  218  A    between atoms: _527  and  _530
REMARK  219  A    between atoms: _530  and  _531
REMARK  220  A    between atoms: _531  and  _532
REMARK  221  A    between atoms: _534  and  _536
REMARK  222  A    between atoms: _536  and  _537
REMARK  223  A    between atoms: _540  and  _542
REMARK  224  A    between atoms: _542  and  _543
REMARK  225  A    between atoms: _542  and  _545
REMARK  226  A    between atoms: _548  and  _550
REMARK  227  A    between atoms: _550  and  _551
REMARK  228  A    between atoms: _550  and  _553
REMARK  229  A    between atoms: _553  and  _554
REMARK  230  A    between atoms: _554  and  _555
REMARK  231  A    between atoms: _560  and  _562
REMARK  232  A    between atoms: _562  and  _563
REMARK  233  A    between atoms: _562  and  _565
REMARK  234  A    between atoms: _565  and  _566
REMARK                            x       y       z     vdW  Elec       q    Type
REMARK                         _______ _______ _______ _____ _____    ______ ____
ROOT
ATOM      1  O   HOH     1      40.138 -51.823   1.643  0.00  0.00    +0.000 OA
ENDROOT
TORSDOF 0
REMARK  Name = ../refined-set-2016/4fut/4fut_pocket.pdb
REMARK  234 active torsions:
REMARK  status: ('A' for Active; 'I' for Inactive)
REMARK    1  A    between atoms: _1  and  _3
REMARK    2  A    between atoms: _3  and  _4
REMARK    3  A    between atoms: _3  and  _6
REMARK    4  A    between atoms: _6  and  _7
REMARK    5  A    between atoms: _12  and  _13
REMARK    6  A    between atoms: _15  and  _17
REMARK    7  A    between atoms: _17  and  _18
REMARK    8  A    between atoms: _17  and  _20
REMARK    9  A    between atoms: _20  and  _21
REMARK   10  A    between atoms: _24  and  _26
REMARK   11  A    between atoms: _26  and  _27
REMARK   12  A    between atoms: _26  and  _29
REMARK   13  A    between atoms: _29  and  _30
REMARK   14  A    between atoms: _35  and  _36
REMARK   15  A    between atoms: _38  and  _40
REMARK   16  A    between atoms: _40  and  _41
REMARK   17  A    between atoms: _40  and  _43
REMARK   18  A    between atoms: _43  and  _44
REMARK   19  A    between atoms: _47  and  _49
REMARK   20  A    between atoms: _49  and  _50
REMARK   21  A    between atoms: _49  and  _52
REMARK   22  A    between atoms: _52  and  _53
REMARK   23  A    between atoms: _55  and  _57
REMARK   24  A    between atoms: _57  and  _58
REMARK   25  A    between atoms: _60  and  _62
REMARK   26  A    between atoms: _62  and  _63
REMARK   27  A    between atoms: _62  and  _65
REMARK   28  A    between atoms: _65  and  _66
REMARK   29  A    between atoms: _69  and  _71
REMARK   30  A    between atoms: _71  and  _72
REMARK   31  A    between atoms: _71  and  _74
REMARK   32  A    between atoms: _74  and  _75
REMARK   33  A    between atoms: _78  and  _80
REMARK   34  A    between atoms: _80  and  _81
REMARK   35  A    between atoms: _83  and  _85
REMARK   36  A    between atoms: _85  and  _86
REMARK   37  A    between atoms: _85  and  _88
REMARK   38  A    between atoms: _88  and  _89
REMARK   39  A    between atoms: _89  and  _90
REMARK   40  A    between atoms: _90  and  _91
REMARK   41  A    between atoms: _100  and  _102
REMARK   42  A    between atoms: _102  and  _103
REMARK   43  A    between atoms: _102  and  _105
REMARK   44  A    between atoms: _105  and  _106
REMARK   45  A    between atoms: _108  and  _110
REMARK   46  A    between atoms: _110  and  _111
REMARK   47  A    between atoms: _110  and  _119
REMARK   48  A    between atoms: _111  and  _112
REMARK   49  A    between atoms: _112  and  _113
REMARK   50  A    between atoms: _113  and  _114
REMARK   51  A    between atoms: _114  and  _115
REMARK   52  A    between atoms: _121  and  _123
REMARK   53  A    between atoms: _123  and  _124
REMARK   54  A    between atoms: _123  and  _126
REMARK   55  A    between atoms: _126  and  _127
REMARK   56  A    between atoms: _132  and  _134
REMARK   57  A    between atoms: _134  and  _135
REMARK   58  A    between atoms: _134  and  _137
REMARK   59  A    between atoms: _137  and  _138
REMARK   60  A    between atoms: _141  and  _143
REMARK   61  A    between atoms: _143  and  _144
REMARK   62  A    between atoms: _143  and  _146
REMARK   63  A    between atoms: _146  and  _147
REMARK   64  A    between atoms: _153  and  _154
REMARK   65  A    between atoms: _159  and  _161
REMARK   66  A    between atoms: _161  and  _162
REMARK   67  A    between atoms: _161  and  _164
REMARK   68  A    between atoms: _164  and  _165
REMARK   69  A    between atoms: _167  and  _169
REMARK   70  A    between atoms: _169  and  _170
REMARK   71  A    between atoms: _172  and  _174
REMARK   72  A    between atoms: _174  and  _175
REMARK   73  A    between atoms: _174  and  _177
REMARK   74  A    between atoms: _177  and  _178
REMARK   75  A    between atoms: _180  and  _182
REMARK   76  A    between atoms: _182  and  _183
REMARK   77  A    between atoms: _187  and  _188
REMARK   78  A    between atoms: _193  and  _195
REMARK   79  A    between atoms: _195  and  _196
REMARK   80  A    between atoms: _195  and  _198
REMARK   81  A    between atoms: _198  and  _199
REMARK   82  A    between atoms: _202  and  _204
REMARK   83  A    between atoms: _204  and  _205
REMARK   84  A    between atoms: _204  and  _207
REMARK   85  A    between atoms: _207  and  _208
REMARK   86  A    between atoms: _211  and  _213
REMARK   87  A    between atoms: _213  and  _214
REMARK   88  A    between atoms: _213  and  _216
REMARK   89  A    between atoms: _216  and  _217
REMARK   90  A    between atoms: _217  and  _218
REMARK   91  A    between atoms: _221  and  _223
REMARK   92  A    between atoms: _223  and  _224
REMARK   93  A    between atoms: _223  and  _226
REMARK   94  A    between atoms: _226  and  _227
REMARK   95  A    between atoms: _227  and  _228
REMARK   96  A    between atoms: _228  and  _229
REMARK   97  A    between atoms: _238  and  _240
REMARK   98  A    between atoms: _240  and  _241
REMARK   99  A    between atoms: _240  and  _243
REMARK  100  A    between atoms: _243  and  _244
REMARK  101  A    between atoms: _249  and  _250
REMARK  102  A    between atoms: _252  and  _254
REMARK  103  A    between atoms: _254  and  _255
REMARK  104  A    between atoms: _257  and  _259
REMARK  105  A    between atoms: _259  and  _260
REMARK  106  A    between atoms: _259  and  _262
REMARK  107  A    between atoms: _262  and  _263
REMARK  108  A    between atoms: _263  and  _264
REMARK  109  A    between atoms: _266  and  _268
REMARK  110  A    between atoms: _268  and  _269
REMARK  111  A    between atoms: _268  and  _271
REMARK  112  A    between atoms: _271  and  _272
REMARK  113  A    between atoms: _275  and  _277
REMARK  114  A    between atoms: _277  and  _278
REMARK  115  A    between atoms: _277  and  _280
REMARK  116  A    between atoms: _280  and  _281
REMARK  117  A    between atoms: _281  and  _282
REMARK  118  A    between atoms: _285  and  _287
REMARK  119  A    between atoms: _287  and  _288
REMARK  120  A    between atoms: _287  and  _290
REMARK  121  A    between atoms: _290  and  _291
REMARK  122  A    between atoms: _294  and  _296
REMARK  123  A    between atoms: _296  and  _297
REMARK  124  A    between atoms: _296  and  _299
REMARK  125  A    between atoms: _299  and  _300
REMARK  126  A    between atoms: _305  and  _307
REMARK  127  A    between atoms: _307  and  _308
REMARK  128  A    between atoms: _307  and  _310
REMARK  129  A    between atoms: _310  and  _311
REMARK  130  A    between atoms: _311  and  _312
REMARK  131  A    between atoms: _314  and  _316
REMARK  132  A    between atoms: _316  and  _317
REMARK  133  A    between atoms: _316  and  _319
REMARK  134  A    between atoms: _319  and  _320
REMARK  135  A    between atoms: _325  and  _327
REMARK  136  A    between atoms: _327  and  _328
REMARK  137  A    between atoms: _327  and  _330
REMARK  138  A    between atoms: _330  and  _331
REMARK  139  A    between atoms: _334  and  _336
REMARK  140  A    between atoms: _336  and  _337
REMARK  141  A    between atoms: _336  and  _339
REMARK  142  A    between atoms: _339  and  _340
REMARK  143  A    between atoms: _345  and  _347
REMARK  144  A    between atoms: _347  and  _348
REMARK  145  A    between atoms: _350  and  _352
REMARK  146  A    between atoms: _352  and  _353
REMARK  147  A    between atoms: _356  and  _358
REMARK  148  A    between atoms: _358  and  _359
REMARK  149  A    between atoms: _358  and  _361
REMARK  150  A    between atoms: _364  and  _366
REMARK  151  A    between atoms: _366  and  _367
REMARK  152  A    between atoms: _369  and  _371
REMARK  153  A    between atoms: _371  and  _372
REMARK  154  A    between atoms: _371  and  _374
REMARK  155  A    between atoms: _374  and  _375
REMARK  156  A    between atoms: _380  and  _381
REMARK  157  A    between atoms: _383  and  _385
REMARK  158  A    between atoms: _385  and  _386
REMARK  159  A    between atoms: _385  and  _388
REMARK  160  A    between atoms: _388  and  _389
REMARK  161  A    between atoms: _395  and  _397
REMARK  162  A    between atoms: _397  and  _398
REMARK  163  A    between atoms: _397  and  _400
REMARK  164  A    between atoms: _400  and  _401
REMARK  165  A    between atoms: _404  and  _406
REMARK  166  A    between atoms: _406  and  _407
REMARK  167  A    between atoms: _406  and  _409
REMARK  168  A    between atoms: _409  and  _410
REMARK  169  A    between atoms: _413  and  _415
REMARK  170  A    between atoms: _415  and  _416
REMARK  171  A    between atoms: _418  and  _420
REMARK  172  A    between atoms: _420  and  _421
REMARK  173  A    between atoms: _420  and  _423
REMARK  174  A    between atoms: _423  and  _424
REMARK  175  A    between atoms: _427  and  _429
REMARK  176  A    between atoms: _429  and  _430
REMARK  177  A    between atoms: _429  and  _432
REMARK  178  A    between atoms: _432  and  _433
REMARK  179  A    between atoms: _436  and  _438
REMARK  180  A    between atoms: _438  and  _439
REMARK  181  A    between atoms: _438  and  _441
REMARK  182  A    between atoms: _441  and  _442
REMARK  183  A    between atoms: _447  and  _449
REMARK  184  A    between atoms: _449  and  _450
REMARK  185  A    between atoms: _449  and  _452
REMARK  186  A    between atoms: _452  and  _453
REMARK  187  A    between atoms: _456  and  _458
REMARK  188  A    between atoms: _458  and  _459
REMARK  189  A    between atoms: _458  and  _461
REMARK  190  A    between atoms: _461  and  _462
REMARK  191  A    between atoms: _465  and  _467
REMARK  192  A    between atoms: _467  and  _468
REMARK  193  A    between atoms: _470  and  _472
REMARK  194  A    between atoms: _472  and  _473
REMARK  195  A    between atoms: _472  and  _475
REMARK  196  A    between atoms: _475  and  _476
REMARK  197  A    between atoms: _476  and  _477
REMARK  198  A    between atoms: _477  and  _478
REMARK  199  A    between atoms: _487  and  _489
REMARK  200  A    between atoms: _489  and  _490
REMARK  201  A    between atoms: _492  and  _494
REMARK  202  A    between atoms: _494  and  _495
REMARK  203  A    between atoms: _494  and  _497
REMARK  204  A    between atoms: _497  and  _498
REMARK  205  A    between atoms: _501  and  _503
REMARK  206  A    between atoms: _503  and  _504
REMARK  207  A    between atoms: _503  and  _512
REMARK  208  A    between atoms: _504  and  _505
REMARK  209  A    between atoms: _505  and  _506
REMARK  210  A    between atoms: _506  and  _507
REMARK  211  A    between atoms: _507  and  _508
REMARK  212  A    between atoms: _514  and  _516
REMARK  213  A    between atoms: _516  and  _517
REMARK  214  A    between atoms: _516  and  _519
REMARK  215  A    between atoms: _519  and  _520
REMARK  216  A    between atoms: _525  and  _527
REMARK  217  A    between atoms: _527  and  _528
REMARK  218  A    between atoms: _527  and  _530
REMARK  219  A    between atoms: _530  and  _531
REMARK  220  A    between atoms: _531  and  _532
REMARK  221  A    between atoms: _534  and  _536
REMARK  222  A    between atoms: _536  and  _537
REMARK  223  A    between atoms: _540  and  _542
REMARK  224  A    between atoms: _542  and  _543
REMARK  225  A    between atoms: _542  and  _545
REMARK  226  A    between atoms: _548  and  _550
REMARK  227  A    between atoms: _550  and  _551
REMARK  228  A    between atoms: _550  and  _553
REMARK  229  A    between atoms: _553  and  _554
REMARK  230  A    between atoms: _554  and  _555
REMARK  231  A    between atoms: _560  and  _562
REMARK  232  A    between atoms: _562  and  _563
REMARK  233  A    between atoms: _562  and  _565
REMARK  234  A    between atoms: _565  and  _566
REMARK                            x       y       z     vdW  Elec       q    Type
REMARK                         _______ _______ _______ _____ _____    ______ ____
ROOT
ATOM      1  O   HOH     1      29.504 -60.289   0.098  0.00  0.00    +0.000 OA
ENDROOT
TORSDOF 0
REMARK  Name = ../refined-set-2016/4fut/4fut_pocket.pdb
REMARK  234 active torsions:
REMARK  status: ('A' for Active; 'I' for Inactive)
REMARK    1  A    between atoms: _1  and  _3
REMARK    2  A    between atoms: _3  and  _4
REMARK    3  A    between atoms: _3  and  _6
REMARK    4  A    between atoms: _6  and  _7
REMARK    5  A    between atoms: _12  and  _13
REMARK    6  A    between atoms: _15  and  _17
REMARK    7  A    between atoms: _17  and  _18
REMARK    8  A    between atoms: _17  and  _20
REMARK    9  A    between atoms: _20  and  _21
REMARK   10  A    between atoms: _24  and  _26
REMARK   11  A    between atoms: _26  and  _27
REMARK   12  A    between atoms: _26  and  _29
REMARK   13  A    between atoms: _29  and  _30
REMARK   14  A    between atoms: _35  and  _36
REMARK   15  A    between atoms: _38  and  _40
REMARK   16  A    between atoms: _40  and  _41
REMARK   17  A    between atoms: _40  and  _43
REMARK   18  A    between atoms: _43  and  _44
REMARK   19  A    between atoms: _47  and  _49
REMARK   20  A    between atoms: _49  and  _50
REMARK   21  A    between atoms: _49  and  _52
REMARK   22  A    between atoms: _52  and  _53
REMARK   23  A    between atoms: _55  and  _57
REMARK   24  A    between atoms: _57  and  _58
REMARK   25  A    between atoms: _60  and  _62
REMARK   26  A    between atoms: _62  and  _63
REMARK   27  A    between atoms: _62  and  _65
REMARK   28  A    between atoms: _65  and  _66
REMARK   29  A    between atoms: _69  and  _71
REMARK   30  A    between atoms: _71  and  _72
REMARK   31  A    between atoms: _71  and  _74
REMARK   32  A    between atoms: _74  and  _75
REMARK   33  A    between atoms: _78  and  _80
REMARK   34  A    between atoms: _80  and  _81
REMARK   35  A    between atoms: _83  and  _85
REMARK   36  A    between atoms: _85  and  _86
REMARK   37  A    between atoms: _85  and  _88
REMARK   38  A    between atoms: _88  and  _89
REMARK   39  A    between atoms: _89  and  _90
REMARK   40  A    between atoms: _90  and  _91
REMARK   41  A    between atoms: _100  and  _102
REMARK   42  A    between atoms: _102  and  _103
REMARK   43  A    between atoms: _102  and  _105
REMARK   44  A    between atoms: _105  and  _106
REMARK   45  A    between atoms: _108  and  _110
REMARK   46  A    between atoms: _110  and  _111
REMARK   47  A    between atoms: _110  and  _119
REMARK   48  A    between atoms: _111  and  _112
REMARK   49  A    between atoms: _112  and  _113
REMARK   50  A    between atoms: _113  and  _114
REMARK   51  A    between atoms: _114  and  _115
REMARK   52  A    between atoms: _121  and  _123
REMARK   53  A    between atoms: _123  and  _124
REMARK   54  A    between atoms: _123  and  _126
REMARK   55  A    between atoms: _126  and  _127
REMARK   56  A    between atoms: _132  and  _134
REMARK   57  A    between atoms: _134  and  _135
REMARK   58  A    between atoms: _134  and  _137
REMARK   59  A    between atoms: _137  and  _138
REMARK   60  A    between atoms: _141  and  _143
REMARK   61  A    between atoms: _143  and  _144
REMARK   62  A    between atoms: _143  and  _146
REMARK   63  A    between atoms: _146  and  _147
REMARK   64  A    between atoms: _153  and  _154
REMARK   65  A    between atoms: _159  and  _161
REMARK   66  A    between atoms: _161  and  _162
REMARK   67  A    between atoms: _161  and  _164
REMARK   68  A    between atoms: _164  and  _165
REMARK   69  A    between atoms: _167  and  _169
REMARK   70  A    between atoms: _169  and  _170
REMARK   71  A    between atoms: _172  and  _174
REMARK   72  A    between atoms: _174  and  _175
REMARK   73  A    between atoms: _174  and  _177
REMARK   74  A    between atoms: _177  and  _178
REMARK   75  A    between atoms: _180  and  _182
REMARK   76  A    between atoms: _182  and  _183
REMARK   77  A    between atoms: _187  and  _188
REMARK   78  A    between atoms: _193  and  _195
REMARK   79  A    between atoms: _195  and  _196
REMARK   80  A    between atoms: _195  and  _198
REMARK   81  A    between atoms: _198  and  _199
REMARK   82  A    between atoms: _202  and  _204
REMARK   83  A    between atoms: _204  and  _205
REMARK   84  A    between atoms: _204  and  _207
REMARK   85  A    between atoms: _207  and  _208
REMARK   86  A    between atoms: _211  and  _213
REMARK   87  A    between atoms: _213  and  _214
REMARK   88  A    between atoms: _213  and  _216
REMARK   89  A    between atoms: _216  and  _217
REMARK   90  A    between atoms: _217  and  _218
REMARK   91  A    between atoms: _221  and  _223
REMARK   92  A    between atoms: _223  and  _224
REMARK   93  A    between atoms: _223  and  _226
REMARK   94  A    between atoms: _226  and  _227
REMARK   95  A    between atoms: _227  and  _228
REMARK   96  A    between atoms: _228  and  _229
REMARK   97  A    between atoms: _238  and  _240
REMARK   98  A    between atoms: _240  and  _241
REMARK   99  A    between atoms: _240  and  _243
REMARK  100  A    between atoms: _243  and  _244
REMARK  101  A    between atoms: _249  and  _250
REMARK  102  A    between atoms: _252  and  _254
REMARK  103  A    between atoms: _254  and  _255
REMARK  104  A    between atoms: _257  and  _259
REMARK  105  A    between atoms: _259  and  _260
REMARK  106  A    between atoms: _259  and  _262
REMARK  107  A    between atoms: _262  and  _263
REMARK  108  A    between atoms: _263  and  _264
REMARK  109  A    between atoms: _266  and  _268
REMARK  110  A    between atoms: _268  and  _269
REMARK  111  A    between atoms: _268  and  _271
REMARK  112  A    between atoms: _271  and  _272
REMARK  113  A    between atoms: _275  and  _277
REMARK  114  A    between atoms: _277  and  _278
REMARK  115  A    between atoms: _277  and  _280
REMARK  116  A    between atoms: _280  and  _281
REMARK  117  A    between atoms: _281  and  _282
REMARK  118  A    between atoms: _285  and  _287
REMARK  119  A    between atoms: _287  and  _288
REMARK  120  A    between atoms: _287  and  _290
REMARK  121  A    between atoms: _290  and  _291
REMARK  122  A    between atoms: _294  and  _296
REMARK  123  A    between atoms: _296  and  _297
REMARK  124  A    between atoms: _296  and  _299
REMARK  125  A    between atoms: _299  and  _300
REMARK  126  A    between atoms: _305  and  _307
REMARK  127  A    between atoms: _307  and  _308
REMARK  128  A    between atoms: _307  and  _310
REMARK  129  A    between atoms: _310  and  _311
REMARK  130  A    between atoms: _311  and  _312
REMARK  131  A    between atoms: _314  and  _316
REMARK  132  A    between atoms: _316  and  _317
REMARK  133  A    between atoms: _316  and  _319
REMARK  134  A    between atoms: _319  and  _320
REMARK  135  A    between atoms: _325  and  _327
REMARK  136  A    between atoms: _327  and  _328
REMARK  137  A    between atoms: _327  and  _330
REMARK  138  A    between atoms: _330  and  _331
REMARK  139  A    between atoms: _334  and  _336
REMARK  140  A    between atoms: _336  and  _337
REMARK  141  A    between atoms: _336  and  _339
REMARK  142  A    between atoms: _339  and  _340
REMARK  143  A    between atoms: _345  and  _347
REMARK  144  A    between atoms: _347  and  _348
REMARK  145  A    between atoms: _350  and  _352
REMARK  146  A    between atoms: _352  and  _353
REMARK  147  A    between atoms: _356  and  _358
REMARK  148  A    between atoms: _358  and  _359
REMARK  149  A    between atoms: _358  and  _361
REMARK  150  A    between atoms: _364  and  _366
REMARK  151  A    between atoms: _366  and  _367
REMARK  152  A    between atoms: _369  and  _371
REMARK  153  A    between atoms: _371  and  _372
REMARK  154  A    between atoms: _371  and  _374
REMARK  155  A    between atoms: _374  and  _375
REMARK  156  A    between atoms: _380  and  _381
REMARK  157  A    between atoms: _383  and  _385
REMARK  158  A    between atoms: _385  and  _386
REMARK  159  A    between atoms: _385  and  _388
REMARK  160  A    between atoms: _388  and  _389
REMARK  161  A    between atoms: _395  and  _397
REMARK  162  A    between atoms: _397  and  _398
REMARK  163  A    between atoms: _397  and  _400
REMARK  164  A    between atoms: _400  and  _401
REMARK  165  A    between atoms: _404  and  _406
REMARK  166  A    between atoms: _406  and  _407
REMARK  167  A    between atoms: _406  and  _409
REMARK  168  A    between atoms: _409  and  _410
REMARK  169  A    between atoms: _413  and  _415
REMARK  170  A    between atoms: _415  and  _416
REMARK  171  A    between atoms: _418  and  _420
REMARK  172  A    between atoms: _420  and  _421
REMARK  173  A    between atoms: _420  and  _423
REMARK  174  A    between atoms: _423  and  _424
REMARK  175  A    between atoms: _427  and  _429
REMARK  176  A    between atoms: _429  and  _430
REMARK  177  A    between atoms: _429  and  _432
REMARK  178  A    between atoms: _432  and  _433
REMARK  179  A    between atoms: _436  and  _438
REMARK  180  A    between atoms: _438  and  _439
REMARK  181  A    between atoms: _438  and  _441
REMARK  182  A    between atoms: _441  and  _442
REMARK  183  A    between atoms: _447  and  _449
REMARK  184  A    between atoms: _449  and  _450
REMARK  185  A    between atoms: _449  and  _452
REMARK  186  A    between atoms: _452  and  _453
REMARK  187  A    between atoms: _456  and  _458
REMARK  188  A    between atoms: _458  and  _459
REMARK  189  A    between atoms: _458  and  _461
REMARK  190  A    between atoms: _461  and  _462
REMARK  191  A    between atoms: _465  and  _467
REMARK  192  A    between atoms: _467  and  _468
REMARK  193  A    between atoms: _470  and  _472
REMARK  194  A    between atoms: _472  and  _473
REMARK  195  A    between atoms: _472  and  _475
REMARK  196  A    between atoms: _475  and  _476
REMARK  197  A    between atoms: _476  and  _477
REMARK  198  A    between atoms: _477  and  _478
REMARK  199  A    between atoms: _487  and  _489
REMARK  200  A    between atoms: _489  and  _490
REMARK  201  A    between atoms: _492  and  _494
REMARK  202  A    between atoms: _494  and  _495
REMARK  203  A    between atoms: _494  and  _497
REMARK  204  A    between atoms: _497  and  _498
REMARK  205  A    between atoms: _501  and  _503
REMARK  206  A    between atoms: _503  and  _504
REMARK  207  A    between atoms: _503  and  _512
REMARK  208  A    between atoms: _504  and  _505
REMARK  209  A    between atoms: _505  and  _506
REMARK  210  A    between atoms: _506  and  _507
REMARK  211  A    between atoms: _507  and  _508
REMARK  212  A    between atoms: _514  and  _516
REMARK  213  A    between atoms: _516  and  _517
REMARK  214  A    between atoms: _516  and  _519
REMARK  215  A    between atoms: _519  and  _520
REMARK  216  A    between atoms: _525  and  _527
REMARK  217  A    between atoms: _527  and  _528
REMARK  218  A    between atoms: _527  and  _530
REMARK  219  A    between atoms: _530  and  _531
REMARK  220  A    between atoms: _531  and  _532
REMARK  221  A    between atoms: _534  and  _536
REMARK  222  A    between atoms: _536  and  _537
REMARK  223  A    between atoms: _540  and  _542
REMARK  224  A    between atoms: _542  and  _543
REMARK  225  A    between atoms: _542  and  _545
REMARK  226  A    between atoms: _548  and  _550
REMARK  227  A    between atoms: _550  and  _551
REMARK  228  A    between atoms: _550  and  _553
REMARK  229  A    between atoms: _553  and  _554
REMARK  230  A    between atoms: _554  and  _555
REMARK  231  A    between atoms: _560  and  _562
REMARK  232  A    between atoms: _562  and  _563
REMARK  233  A    between atoms: _562  and  _565
REMARK  234  A    between atoms: _565  and  _566
REMARK                            x       y       z     vdW  Elec       q    Type
REMARK                         _______ _______ _______ _____ _____    ______ ____
ROOT
ATOM      1  O   HOH     1      29.886 -46.523  -3.914  0.00  0.00    +0.000 OA
ENDROOT
TORSDOF 0
REMARK  Name = ../refined-set-2016/4fut/4fut_pocket.pdb
REMARK  234 active torsions:
REMARK  status: ('A' for Active; 'I' for Inactive)
REMARK    1  A    between atoms: _1  and  _3
REMARK    2  A    between atoms: _3  and  _4
REMARK    3  A    between atoms: _3  and  _6
REMARK    4  A    between atoms: _6  and  _7
REMARK    5  A    between atoms: _12  and  _13
REMARK    6  A    between atoms: _15  and  _17
REMARK    7  A    between atoms: _17  and  _18
REMARK    8  A    between atoms: _17  and  _20
REMARK    9  A    between atoms: _20  and  _21
REMARK   10  A    between atoms: _24  and  _26
REMARK   11  A    between atoms: _26  and  _27
REMARK   12  A    between atoms: _26  and  _29
REMARK   13  A    between atoms: _29  and  _30
REMARK   14  A    between atoms: _35  and  _36
REMARK   15  A    between atoms: _38  and  _40
REMARK   16  A    between atoms: _40  and  _41
REMARK   17  A    between atoms: _40  and  _43
REMARK   18  A    between atoms: _43  and  _44
REMARK   19  A    between atoms: _47  and  _49
REMARK   20  A    between atoms: _49  and  _50
REMARK   21  A    between atoms: _49  and  _52
REMARK   22  A    between atoms: _52  and  _53
REMARK   23  A    between atoms: _55  and  _57
REMARK   24  A    between atoms: _57  and  _58
REMARK   25  A    between atoms: _60  and  _62
REMARK   26  A    between atoms: _62  and  _63
REMARK   27  A    between atoms: _62  and  _65
REMARK   28  A    between atoms: _65  and  _66
REMARK   29  A    between atoms: _69  and  _71
REMARK   30  A    between atoms: _71  and  _72
REMARK   31  A    between atoms: _71  and  _74
REMARK   32  A    between atoms: _74  and  _75
REMARK   33  A    between atoms: _78  and  _80
REMARK   34  A    between atoms: _80  and  _81
REMARK   35  A    between atoms: _83  and  _85
REMARK   36  A    between atoms: _85  and  _86
REMARK   37  A    between atoms: _85  and  _88
REMARK   38  A    between atoms: _88  and  _89
REMARK   39  A    between atoms: _89  and  _90
REMARK   40  A    between atoms: _90  and  _91
REMARK   41  A    between atoms: _100  and  _102
REMARK   42  A    between atoms: _102  and  _103
REMARK   43  A    between atoms: _102  and  _105
REMARK   44  A    between atoms: _105  and  _106
REMARK   45  A    between atoms: _108  and  _110
REMARK   46  A    between atoms: _110  and  _111
REMARK   47  A    between atoms: _110  and  _119
REMARK   48  A    between atoms: _111  and  _112
REMARK   49  A    between atoms: _112  and  _113
REMARK   50  A    between atoms: _113  and  _114
REMARK   51  A    between atoms: _114  and  _115
REMARK   52  A    between atoms: _121  and  _123
REMARK   53  A    between atoms: _123  and  _124
REMARK   54  A    between atoms: _123  and  _126
REMARK   55  A    between atoms: _126  and  _127
REMARK   56  A    between atoms: _132  and  _134
REMARK   57  A    between atoms: _134  and  _135
REMARK   58  A    between atoms: _134  and  _137
REMARK   59  A    between atoms: _137  and  _138
REMARK   60  A    between atoms: _141  and  _143
REMARK   61  A    between atoms: _143  and  _144
REMARK   62  A    between atoms: _143  and  _146
REMARK   63  A    between atoms: _146  and  _147
REMARK   64  A    between atoms: _153  and  _154
REMARK   65  A    between atoms: _159  and  _161
REMARK   66  A    between atoms: _161  and  _162
REMARK   67  A    between atoms: _161  and  _164
REMARK   68  A    between atoms: _164  and  _165
REMARK   69  A    between atoms: _167  and  _169
REMARK   70  A    between atoms: _169  and  _170
REMARK   71  A    between atoms: _172  and  _174
REMARK   72  A    between atoms: _174  and  _175
REMARK   73  A    between atoms: _174  and  _177
REMARK   74  A    between atoms: _177  and  _178
REMARK   75  A    between atoms: _180  and  _182
REMARK   76  A    between atoms: _182  and  _183
REMARK   77  A    between atoms: _187  and  _188
REMARK   78  A    between atoms: _193  and  _195
REMARK   79  A    between atoms: _195  and  _196
REMARK   80  A    between atoms: _195  and  _198
REMARK   81  A    between atoms: _198  and  _199
REMARK   82  A    between atoms: _202  and  _204
REMARK   83  A    between atoms: _204  and  _205
REMARK   84  A    between atoms: _204  and  _207
REMARK   85  A    between atoms: _207  and  _208
REMARK   86  A    between atoms: _211  and  _213
REMARK   87  A    between atoms: _213  and  _214
REMARK   88  A    between atoms: _213  and  _216
REMARK   89  A    between atoms: _216  and  _217
REMARK   90  A    between atoms: _217  and  _218
REMARK   91  A    between atoms: _221  and  _223
REMARK   92  A    between atoms: _223  and  _224
REMARK   93  A    between atoms: _223  and  _226
REMARK   94  A    between atoms: _226  and  _227
REMARK   95  A    between atoms: _227  and  _228
REMARK   96  A    between atoms: _228  and  _229
REMARK   97  A    between atoms: _238  and  _240
REMARK   98  A    between atoms: _240  and  _241
REMARK   99  A    between atoms: _240  and  _243
REMARK  100  A    between atoms: _243  and  _244
REMARK  101  A    between atoms: _249  and  _250
REMARK  102  A    between atoms: _252  and  _254
REMARK  103  A    between atoms: _254  and  _255
REMARK  104  A    between atoms: _257  and  _259
REMARK  105  A    between atoms: _259  and  _260
REMARK  106  A    between atoms: _259  and  _262
REMARK  107  A    between atoms: _262  and  _263
REMARK  108  A    between atoms: _263  and  _264
REMARK  109  A    between atoms: _266  and  _268
REMARK  110  A    between atoms: _268  and  _269
REMARK  111  A    between atoms: _268  and  _271
REMARK  112  A    between atoms: _271  and  _272
REMARK  113  A    between atoms: _275  and  _277
REMARK  114  A    between atoms: _277  and  _278
REMARK  115  A    between atoms: _277  and  _280
REMARK  116  A    between atoms: _280  and  _281
REMARK  117  A    between atoms: _281  and  _282
REMARK  118  A    between atoms: _285  and  _287
REMARK  119  A    between atoms: _287  and  _288
REMARK  120  A    between atoms: _287  and  _290
REMARK  121  A    between atoms: _290  and  _291
REMARK  122  A    between atoms: _294  and  _296
REMARK  123  A    between atoms: _296  and  _297
REMARK  124  A    between atoms: _296  and  _299
REMARK  125  A    between atoms: _299  and  _300
REMARK  126  A    between atoms: _305  and  _307
REMARK  127  A    between atoms: _307  and  _308
REMARK  128  A    between atoms: _307  and  _310
REMARK  129  A    between atoms: _310  and  _311
REMARK  130  A    between atoms: _311  and  _312
REMARK  131  A    between atoms: _314  and  _316
REMARK  132  A    between atoms: _316  and  _317
REMARK  133  A    between atoms: _316  and  _319
REMARK  134  A    between atoms: _319  and  _320
REMARK  135  A    between atoms: _325  and  _327
REMARK  136  A    between atoms: _327  and  _328
REMARK  137  A    between atoms: _327  and  _330
REMARK  138  A    between atoms: _330  and  _331
REMARK  139  A    between atoms: _334  and  _336
REMARK  140  A    between atoms: _336  and  _337
REMARK  141  A    between atoms: _336  and  _339
REMARK  142  A    between atoms: _339  and  _340
REMARK  143  A    between atoms: _345  and  _347
REMARK  144  A    between atoms: _347  and  _348
REMARK  145  A    between atoms: _350  and  _352
REMARK  146  A    between atoms: _352  and  _353
REMARK  147  A    between atoms: _356  and  _358
REMARK  148  A    between atoms: _358  and  _359
REMARK  149  A    between atoms: _358  and  _361
REMARK  150  A    between atoms: _364  and  _366
REMARK  151  A    between atoms: _366  and  _367
REMARK  152  A    between atoms: _369  and  _371
REMARK  153  A    between atoms: _371  and  _372
REMARK  154  A    between atoms: _371  and  _374
REMARK  155  A    between atoms: _374  and  _375
REMARK  156  A    between atoms: _380  and  _381
REMARK  157  A    between atoms: _383  and  _385
REMARK  158  A    between atoms: _385  and  _386
REMARK  159  A    between atoms: _385  and  _388
REMARK  160  A    between atoms: _388  and  _389
REMARK  161  A    between atoms: _395  and  _397
REMARK  162  A    between atoms: _397  and  _398
REMARK  163  A    between atoms: _397  and  _400
REMARK  164  A    between atoms: _400  and  _401
REMARK  165  A    between atoms: _404  and  _406
REMARK  166  A    between atoms: _406  and  _407
REMARK  167  A    between atoms: _406  and  _409
REMARK  168  A    between atoms: _409  and  _410
REMARK  169  A    between atoms: _413  and  _415
REMARK  170  A    between atoms: _415  and  _416
REMARK  171  A    between atoms: _418  and  _420
REMARK  172  A    between atoms: _420  and  _421
REMARK  173  A    between atoms: _420  and  _423
REMARK  174  A    between atoms: _423  and  _424
REMARK  175  A    between atoms: _427  and  _429
REMARK  176  A    between atoms: _429  and  _430
REMARK  177  A    between atoms: _429  and  _432
REMARK  178  A    between atoms: _432  and  _433
REMARK  179  A    between atoms: _436  and  _438
REMARK  180  A    between atoms: _438  and  _439
REMARK  181  A    between atoms: _438  and  _441
REMARK  182  A    between atoms: _441  and  _442
REMARK  183  A    between atoms: _447  and  _449
REMARK  184  A    between atoms: _449  and  _450
REMARK  185  A    between atoms: _449  and  _452
REMARK  186  A    between atoms: _452  and  _453
REMARK  187  A    between atoms: _456  and  _458
REMARK  188  A    between atoms: _458  and  _459
REMARK  189  A    between atoms: _458  and  _461
REMARK  190  A    between atoms: _461  and  _462
REMARK  191  A    between atoms: _465  and  _467
REMARK  192  A    between atoms: _467  and  _468
REMARK  193  A    between atoms: _470  and  _472
REMARK  194  A    between atoms: _472  and  _473
REMARK  195  A    between atoms: _472  and  _475
REMARK  196  A    between atoms: _475  and  _476
REMARK  197  A    between atoms: _476  and  _477
REMARK  198  A    between atoms: _477  and  _478
REMARK  199  A    between atoms: _487  and  _489
REMARK  200  A    between atoms: _489  and  _490
REMARK  201  A    between atoms: _492  and  _494
REMARK  202  A    between atoms: _494  and  _495
REMARK  203  A    between atoms: _494  and  _497
REMARK  204  A    between atoms: _497  and  _498
REMARK  205  A    between atoms: _501  and  _503
REMARK  206  A    between atoms: _503  and  _504
REMARK  207  A    between atoms: _503  and  _512
REMARK  208  A    between atoms: _504  and  _505
REMARK  209  A    between atoms: _505  and  _506
REMARK  210  A    between atoms: _506  and  _507
REMARK  211  A    between atoms: _507  and  _508
REMARK  212  A    between atoms: _514  and  _516
REMARK  213  A    between atoms: _516  and  _517
REMARK  214  A    between atoms: _516  and  _519
REMARK  215  A    between atoms: _519  and  _520
REMARK  216  A    between atoms: _525  and  _527
REMARK  217  A    between atoms: _527  and  _528
REMARK  218  A    between atoms: _527  and  _530
REMARK  219  A    between atoms: _530  and  _531
REMARK  220  A    between atoms: _531  and  _532
REMARK  221  A    between atoms: _534  and  _536
REMARK  222  A    between atoms: _536  and  _537
REMARK  223  A    between atoms: _540  and  _542
REMARK  224  A    between atoms: _542  and  _543
REMARK  225  A    between atoms: _542  and  _545
REMARK  226  A    between atoms: _548  and  _550
REMARK  227  A    between atoms: _550  and  _551
REMARK  228  A    between atoms: _550  and  _553
REMARK  229  A    between atoms: _553  and  _554
REMARK  230  A    between atoms: _554  and  _555
REMARK  231  A    between atoms: _560  and  _562
REMARK  232  A    between atoms: _562  and  _563
REMARK  233  A    between atoms: _562  and  _565
REMARK  234  A    between atoms: _565  and  _566
REMARK                            x       y       z     vdW  Elec       q    Type
REMARK                         _______ _______ _______ _____ _____    ______ ____
ROOT
ATOM      1  O   HOH     1      33.302 -49.368  -2.081  0.00  0.00    +0.000 OA
ENDROOT
TORSDOF 0
REMARK  Name = ../refined-set-2016/4fut/4fut_pocket.pdb
REMARK  234 active torsions:
REMARK  status: ('A' for Active; 'I' for Inactive)
REMARK    1  A    between atoms: _1  and  _3
REMARK    2  A    between atoms: _3  and  _4
REMARK    3  A    between atoms: _3  and  _6
REMARK    4  A    between atoms: _6  and  _7
REMARK    5  A    between atoms: _12  and  _13
REMARK    6  A    between atoms: _15  and  _17
REMARK    7  A    between atoms: _17  and  _18
REMARK    8  A    between atoms: _17  and  _20
REMARK    9  A    between atoms: _20  and  _21
REMARK   10  A    between atoms: _24  and  _26
REMARK   11  A    between atoms: _26  and  _27
REMARK   12  A    between atoms: _26  and  _29
REMARK   13  A    between atoms: _29  and  _30
REMARK   14  A    between atoms: _35  and  _36
REMARK   15  A    between atoms: _38  and  _40
REMARK   16  A    between atoms: _40  and  _41
REMARK   17  A    between atoms: _40  and  _43
REMARK   18  A    between atoms: _43  and  _44
REMARK   19  A    between atoms: _47  and  _49
REMARK   20  A    between atoms: _49  and  _50
REMARK   21  A    between atoms: _49  and  _52
REMARK   22  A    between atoms: _52  and  _53
REMARK   23  A    between atoms: _55  and  _57
REMARK   24  A    between atoms: _57  and  _58
REMARK   25  A    between atoms: _60  and  _62
REMARK   26  A    between atoms: _62  and  _63
REMARK   27  A    between atoms: _62  and  _65
REMARK   28  A    between atoms: _65  and  _66
REMARK   29  A    between atoms: _69  and  _71
REMARK   30  A    between atoms: _71  and  _72
REMARK   31  A    between atoms: _71  and  _74
REMARK   32  A    between atoms: _74  and  _75
REMARK   33  A    between atoms: _78  and  _80
REMARK   34  A    between atoms: _80  and  _81
REMARK   35  A    between atoms: _83  and  _85
REMARK   36  A    between atoms: _85  and  _86
REMARK   37  A    between atoms: _85  and  _88
REMARK   38  A    between atoms: _88  and  _89
REMARK   39  A    between atoms: _89  and  _90
REMARK   40  A    between atoms: _90  and  _91
REMARK   41  A    between atoms: _100  and  _102
REMARK   42  A    between atoms: _102  and  _103
REMARK   43  A    between atoms: _102  and  _105
REMARK   44  A    between atoms: _105  and  _106
REMARK   45  A    between atoms: _108  and  _110
REMARK   46  A    between atoms: _110  and  _111
REMARK   47  A    between atoms: _110  and  _119
REMARK   48  A    between atoms: _111  and  _112
REMARK   49  A    between atoms: _112  and  _113
REMARK   50  A    between atoms: _113  and  _114
REMARK   51  A    between atoms: _114  and  _115
REMARK   52  A    between atoms: _121  and  _123
REMARK   53  A    between atoms: _123  and  _124
REMARK   54  A    between atoms: _123  and  _126
REMARK   55  A    between atoms: _126  and  _127
REMARK   56  A    between atoms: _132  and  _134
REMARK   57  A    between atoms: _134  and  _135
REMARK   58  A    between atoms: _134  and  _137
REMARK   59  A    between atoms: _137  and  _138
REMARK   60  A    between atoms: _141  and  _143
REMARK   61  A    between atoms: _143  and  _144
REMARK   62  A    between atoms: _143  and  _146
REMARK   63  A    between atoms: _146  and  _147
REMARK   64  A    between atoms: _153  and  _154
REMARK   65  A    between atoms: _159  and  _161
REMARK   66  A    between atoms: _161  and  _162
REMARK   67  A    between atoms: _161  and  _164
REMARK   68  A    between atoms: _164  and  _165
REMARK   69  A    between atoms: _167  and  _169
REMARK   70  A    between atoms: _169  and  _170
REMARK   71  A    between atoms: _172  and  _174
REMARK   72  A    between atoms: _174  and  _175
REMARK   73  A    between atoms: _174  and  _177
REMARK   74  A    between atoms: _177  and  _178
REMARK   75  A    between atoms: _180  and  _182
REMARK   76  A    between atoms: _182  and  _183
REMARK   77  A    between atoms: _187  and  _188
REMARK   78  A    between atoms: _193  and  _195
REMARK   79  A    between atoms: _195  and  _196
REMARK   80  A    between atoms: _195  and  _198
REMARK   81  A    between atoms: _198  and  _199
REMARK   82  A    between atoms: _202  and  _204
REMARK   83  A    between atoms: _204  and  _205
REMARK   84  A    between atoms: _204  and  _207
REMARK   85  A    between atoms: _207  and  _208
REMARK   86  A    between atoms: _211  and  _213
REMARK   87  A    between atoms: _213  and  _214
REMARK   88  A    between atoms: _213  and  _216
REMARK   89  A    between atoms: _216  and  _217
REMARK   90  A    between atoms: _217  and  _218
REMARK   91  A    between atoms: _221  and  _223
REMARK   92  A    between atoms: _223  and  _224
REMARK   93  A    between atoms: _223  and  _226
REMARK   94  A    between atoms: _226  and  _227
REMARK   95  A    between atoms: _227  and  _228
REMARK   96  A    between atoms: _228  and  _229
REMARK   97  A    between atoms: _238  and  _240
REMARK   98  A    between atoms: _240  and  _241
REMARK   99  A    between atoms: _240  and  _243
REMARK  100  A    between atoms: _243  and  _244
REMARK  101  A    between atoms: _249  and  _250
REMARK  102  A    between atoms: _252  and  _254
REMARK  103  A    between atoms: _254  and  _255
REMARK  104  A    between atoms: _257  and  _259
REMARK  105  A    between atoms: _259  and  _260
REMARK  106  A    between atoms: _259  and  _262
REMARK  107  A    between atoms: _262  and  _263
REMARK  108  A    between atoms: _263  and  _264
REMARK  109  A    between atoms: _266  and  _268
REMARK  110  A    between atoms: _268  and  _269
REMARK  111  A    between atoms: _268  and  _271
REMARK  112  A    between atoms: _271  and  _272
REMARK  113  A    between atoms: _275  and  _277
REMARK  114  A    between atoms: _277  and  _278
REMARK  115  A    between atoms: _277  and  _280
REMARK  116  A    between atoms: _280  and  _281
REMARK  117  A    between atoms: _281  and  _282
REMARK  118  A    between atoms: _285  and  _287
REMARK  119  A    between atoms: _287  and  _288
REMARK  120  A    between atoms: _287  and  _290
REMARK  121  A    between atoms: _290  and  _291
REMARK  122  A    between atoms: _294  and  _296
REMARK  123  A    between atoms: _296  and  _297
REMARK  124  A    between atoms: _296  and  _299
REMARK  125  A    between atoms: _299  and  _300
REMARK  126  A    between atoms: _305  and  _307
REMARK  127  A    between atoms: _307  and  _308
REMARK  128  A    between atoms: _307  and  _310
REMARK  129  A    between atoms: _310  and  _311
REMARK  130  A    between atoms: _311  and  _312
REMARK  131  A    between atoms: _314  and  _316
REMARK  132  A    between atoms: _316  and  _317
REMARK  133  A    between atoms: _316  and  _319
REMARK  134  A    between atoms: _319  and  _320
REMARK  135  A    between atoms: _325  and  _327
REMARK  136  A    between atoms: _327  and  _328
REMARK  137  A    between atoms: _327  and  _330
REMARK  138  A    between atoms: _330  and  _331
REMARK  139  A    between atoms: _334  and  _336
REMARK  140  A    between atoms: _336  and  _337
REMARK  141  A    between atoms: _336  and  _339
REMARK  142  A    between atoms: _339  and  _340
REMARK  143  A    between atoms: _345  and  _347
REMARK  144  A    between atoms: _347  and  _348
REMARK  145  A    between atoms: _350  and  _352
REMARK  146  A    between atoms: _352  and  _353
REMARK  147  A    between atoms: _356  and  _358
REMARK  148  A    between atoms: _358  and  _359
REMARK  149  A    between atoms: _358  and  _361
REMARK  150  A    between atoms: _364  and  _366
REMARK  151  A    between atoms: _366  and  _367
REMARK  152  A    between atoms: _369  and  _371
REMARK  153  A    between atoms: _371  and  _372
REMARK  154  A    between atoms: _371  and  _374
REMARK  155  A    between atoms: _374  and  _375
REMARK  156  A    between atoms: _380  and  _381
REMARK  157  A    between atoms: _383  and  _385
REMARK  158  A    between atoms: _385  and  _386
REMARK  159  A    between atoms: _385  and  _388
REMARK  160  A    between atoms: _388  and  _389
REMARK  161  A    between atoms: _395  and  _397
REMARK  162  A    between atoms: _397  and  _398
REMARK  163  A    between atoms: _397  and  _400
REMARK  164  A    between atoms: _400  and  _401
REMARK  165  A    between atoms: _404  and  _406
REMARK  166  A    between atoms: _406  and  _407
REMARK  167  A    between atoms: _406  and  _409
REMARK  168  A    between atoms: _409  and  _410
REMARK  169  A    between atoms: _413  and  _415
REMARK  170  A    between atoms: _415  and  _416
REMARK  171  A    between atoms: _418  and  _420
REMARK  172  A    between atoms: _420  and  _421
REMARK  173  A    between atoms: _420  and  _423
REMARK  174  A    between atoms: _423  and  _424
REMARK  175  A    between atoms: _427  and  _429
REMARK  176  A    between atoms: _429  and  _430
REMARK  177  A    between atoms: _429  and  _432
REMARK  178  A    between atoms: _432  and  _433
REMARK  179  A    between atoms: _436  and  _438
REMARK  180  A    between atoms: _438  and  _439
REMARK  181  A    between atoms: _438  and  _441
REMARK  182  A    between atoms: _441  and  _442
REMARK  183  A    between atoms: _447  and  _449
REMARK  184  A    between atoms: _449  and  _450
REMARK  185  A    between atoms: _449  and  _452
REMARK  186  A    between atoms: _452  and  _453
REMARK  187  A    between atoms: _456  and  _458
REMARK  188  A    between atoms: _458  and  _459
REMARK  189  A    between atoms: _458  and  _461
REMARK  190  A    between atoms: _461  and  _462
REMARK  191  A    between atoms: _465  and  _467
REMARK  192  A    between atoms: _467  and  _468
REMARK  193  A    between atoms: _470  and  _472
REMARK  194  A    between atoms: _472  and  _473
REMARK  195  A    between atoms: _472  and  _475
REMARK  196  A    between atoms: _475  and  _476
REMARK  197  A    between atoms: _476  and  _477
REMARK  198  A    between atoms: _477  and  _478
REMARK  199  A    between atoms: _487  and  _489
REMARK  200  A    between atoms: _489  and  _490
REMARK  201  A    between atoms: _492  and  _494
REMARK  202  A    between atoms: _494  and  _495
REMARK  203  A    between atoms: _494  and  _497
REMARK  204  A    between atoms: _497  and  _498
REMARK  205  A    between atoms: _501  and  _503
REMARK  206  A    between atoms: _503  and  _504
REMARK  207  A    between atoms: _503  and  _512
REMARK  208  A    between atoms: _504  and  _505
REMARK  209  A    between atoms: _505  and  _506
REMARK  210  A    between atoms: _506  and  _507
REMARK  211  A    between atoms: _507  and  _508
REMARK  212  A    between atoms: _514  and  _516
REMARK  213  A    between atoms: _516  and  _517
REMARK  214  A    between atoms: _516  and  _519
REMARK  215  A    between atoms: _519  and  _520
REMARK  216  A    between atoms: _525  and  _527
REMARK  217  A    between atoms: _527  and  _528
REMARK  218  A    between atoms: _527  and  _530
REMARK  219  A    between atoms: _530  and  _531
REMARK  220  A    between atoms: _531  and  _532
REMARK  221  A    between atoms: _534  and  _536
REMARK  222  A    between atoms: _536  and  _537
REMARK  223  A    between atoms: _540  and  _542
REMARK  224  A    between atoms: _542  and  _543
REMARK  225  A    between atoms: _542  and  _545
REMARK  226  A    between atoms: _548  and  _550
REMARK  227  A    between atoms: _550  and  _551
REMARK  228  A    between atoms: _550  and  _553
REMARK  229  A    between atoms: _553  and  _554
REMARK  230  A    between atoms: _554  and  _555
REMARK  231  A    between atoms: _560  and  _562
REMARK  232  A    between atoms: _562  and  _563
REMARK  233  A    between atoms: _562  and  _565
REMARK  234  A    between atoms: _565  and  _566
REMARK                            x       y       z     vdW  Elec       q    Type
REMARK                         _______ _______ _______ _____ _____    ______ ____
ROOT
ATOM      1  O   HOH     1      32.171 -48.493  -4.671  0.00  0.00    +0.000 OA
ENDROOT
TORSDOF 0
REMARK  Name = ../refined-set-2016/4fut/4fut_pocket.pdb
REMARK  234 active torsions:
REMARK  status: ('A' for Active; 'I' for Inactive)
REMARK    1  A    between atoms: _1  and  _3
REMARK    2  A    between atoms: _3  and  _4
REMARK    3  A    between atoms: _3  and  _6
REMARK    4  A    between atoms: _6  and  _7
REMARK    5  A    between atoms: _12  and  _13
REMARK    6  A    between atoms: _15  and  _17
REMARK    7  A    between atoms: _17  and  _18
REMARK    8  A    between atoms: _17  and  _20
REMARK    9  A    between atoms: _20  and  _21
REMARK   10  A    between atoms: _24  and  _26
REMARK   11  A    between atoms: _26  and  _27
REMARK   12  A    between atoms: _26  and  _29
REMARK   13  A    between atoms: _29  and  _30
REMARK   14  A    between atoms: _35  and  _36
REMARK   15  A    between atoms: _38  and  _40
REMARK   16  A    between atoms: _40  and  _41
REMARK   17  A    between atoms: _40  and  _43
REMARK   18  A    between atoms: _43  and  _44
REMARK   19  A    between atoms: _47  and  _49
REMARK   20  A    between atoms: _49  and  _50
REMARK   21  A    between atoms: _49  and  _52
REMARK   22  A    between atoms: _52  and  _53
REMARK   23  A    between atoms: _55  and  _57
REMARK   24  A    between atoms: _57  and  _58
REMARK   25  A    between atoms: _60  and  _62
REMARK   26  A    between atoms: _62  and  _63
REMARK   27  A    between atoms: _62  and  _65
REMARK   28  A    between atoms: _65  and  _66
REMARK   29  A    between atoms: _69  and  _71
REMARK   30  A    between atoms: _71  and  _72
REMARK   31  A    between atoms: _71  and  _74
REMARK   32  A    between atoms: _74  and  _75
REMARK   33  A    between atoms: _78  and  _80
REMARK   34  A    between atoms: _80  and  _81
REMARK   35  A    between atoms: _83  and  _85
REMARK   36  A    between atoms: _85  and  _86
REMARK   37  A    between atoms: _85  and  _88
REMARK   38  A    between atoms: _88  and  _89
REMARK   39  A    between atoms: _89  and  _90
REMARK   40  A    between atoms: _90  and  _91
REMARK   41  A    between atoms: _100  and  _102
REMARK   42  A    between atoms: _102  and  _103
REMARK   43  A    between atoms: _102  and  _105
REMARK   44  A    between atoms: _105  and  _106
REMARK   45  A    between atoms: _108  and  _110
REMARK   46  A    between atoms: _110  and  _111
REMARK   47  A    between atoms: _110  and  _119
REMARK   48  A    between atoms: _111  and  _112
REMARK   49  A    between atoms: _112  and  _113
REMARK   50  A    between atoms: _113  and  _114
REMARK   51  A    between atoms: _114  and  _115
REMARK   52  A    between atoms: _121  and  _123
REMARK   53  A    between atoms: _123  and  _124
REMARK   54  A    between atoms: _123  and  _126
REMARK   55  A    between atoms: _126  and  _127
REMARK   56  A    between atoms: _132  and  _134
REMARK   57  A    between atoms: _134  and  _135
REMARK   58  A    between atoms: _134  and  _137
REMARK   59  A    between atoms: _137  and  _138
REMARK   60  A    between atoms: _141  and  _143
REMARK   61  A    between atoms: _143  and  _144
REMARK   62  A    between atoms: _143  and  _146
REMARK   63  A    between atoms: _146  and  _147
REMARK   64  A    between atoms: _153  and  _154
REMARK   65  A    between atoms: _159  and  _161
REMARK   66  A    between atoms: _161  and  _162
REMARK   67  A    between atoms: _161  and  _164
REMARK   68  A    between atoms: _164  and  _165
REMARK   69  A    between atoms: _167  and  _169
REMARK   70  A    between atoms: _169  and  _170
REMARK   71  A    between atoms: _172  and  _174
REMARK   72  A    between atoms: _174  and  _175
REMARK   73  A    between atoms: _174  and  _177
REMARK   74  A    between atoms: _177  and  _178
REMARK   75  A    between atoms: _180  and  _182
REMARK   76  A    between atoms: _182  and  _183
REMARK   77  A    between atoms: _187  and  _188
REMARK   78  A    between atoms: _193  and  _195
REMARK   79  A    between atoms: _195  and  _196
REMARK   80  A    between atoms: _195  and  _198
REMARK   81  A    between atoms: _198  and  _199
REMARK   82  A    between atoms: _202  and  _204
REMARK   83  A    between atoms: _204  and  _205
REMARK   84  A    between atoms: _204  and  _207
REMARK   85  A    between atoms: _207  and  _208
REMARK   86  A    between atoms: _211  and  _213
REMARK   87  A    between atoms: _213  and  _214
REMARK   88  A    between atoms: _213  and  _216
REMARK   89  A    between atoms: _216  and  _217
REMARK   90  A    between atoms: _217  and  _218
REMARK   91  A    between atoms: _221  and  _223
REMARK   92  A    between atoms: _223  and  _224
REMARK   93  A    between atoms: _223  and  _226
REMARK   94  A    between atoms: _226  and  _227
REMARK   95  A    between atoms: _227  and  _228
REMARK   96  A    between atoms: _228  and  _229
REMARK   97  A    between atoms: _238  and  _240
REMARK   98  A    between atoms: _240  and  _241
REMARK   99  A    between atoms: _240  and  _243
REMARK  100  A    between atoms: _243  and  _244
REMARK  101  A    between atoms: _249  and  _250
REMARK  102  A    between atoms: _252  and  _254
REMARK  103  A    between atoms: _254  and  _255
REMARK  104  A    between atoms: _257  and  _259
REMARK  105  A    between atoms: _259  and  _260
REMARK  106  A    between atoms: _259  and  _262
REMARK  107  A    between atoms: _262  and  _263
REMARK  108  A    between atoms: _263  and  _264
REMARK  109  A    between atoms: _266  and  _268
REMARK  110  A    between atoms: _268  and  _269
REMARK  111  A    between atoms: _268  and  _271
REMARK  112  A    between atoms: _271  and  _272
REMARK  113  A    between atoms: _275  and  _277
REMARK  114  A    between atoms: _277  and  _278
REMARK  115  A    between atoms: _277  and  _280
REMARK  116  A    between atoms: _280  and  _281
REMARK  117  A    between atoms: _281  and  _282
REMARK  118  A    between atoms: _285  and  _287
REMARK  119  A    between atoms: _287  and  _288
REMARK  120  A    between atoms: _287  and  _290
REMARK  121  A    between atoms: _290  and  _291
REMARK  122  A    between atoms: _294  and  _296
REMARK  123  A    between atoms: _296  and  _297
REMARK  124  A    between atoms: _296  and  _299
REMARK  125  A    between atoms: _299  and  _300
REMARK  126  A    between atoms: _305  and  _307
REMARK  127  A    between atoms: _307  and  _308
REMARK  128  A    between atoms: _307  and  _310
REMARK  129  A    between atoms: _310  and  _311
REMARK  130  A    between atoms: _311  and  _312
REMARK  131  A    between atoms: _314  and  _316
REMARK  132  A    between atoms: _316  and  _317
REMARK  133  A    between atoms: _316  and  _319
REMARK  134  A    between atoms: _319  and  _320
REMARK  135  A    between atoms: _325  and  _327
REMARK  136  A    between atoms: _327  and  _328
REMARK  137  A    between atoms: _327  and  _330
REMARK  138  A    between atoms: _330  and  _331
REMARK  139  A    between atoms: _334  and  _336
REMARK  140  A    between atoms: _336  and  _337
REMARK  141  A    between atoms: _336  and  _339
REMARK  142  A    between atoms: _339  and  _340
REMARK  143  A    between atoms: _345  and  _347
REMARK  144  A    between atoms: _347  and  _348
REMARK  145  A    between atoms: _350  and  _352
REMARK  146  A    between atoms: _352  and  _353
REMARK  147  A    between atoms: _356  and  _358
REMARK  148  A    between atoms: _358  and  _359
REMARK  149  A    between atoms: _358  and  _361
REMARK  150  A    between atoms: _364  and  _366
REMARK  151  A    between atoms: _366  and  _367
REMARK  152  A    between atoms: _369  and  _371
REMARK  153  A    between atoms: _371  and  _372
REMARK  154  A    between atoms: _371  and  _374
REMARK  155  A    between atoms: _374  and  _375
REMARK  156  A    between atoms: _380  and  _381
REMARK  157  A    between atoms: _383  and  _385
REMARK  158  A    between atoms: _385  and  _386
REMARK  159  A    between atoms: _385  and  _388
REMARK  160  A    between atoms: _388  and  _389
REMARK  161  A    between atoms: _395  and  _397
REMARK  162  A    between atoms: _397  and  _398
REMARK  163  A    between atoms: _397  and  _400
REMARK  164  A    between atoms: _400  and  _401
REMARK  165  A    between atoms: _404  and  _406
REMARK  166  A    between atoms: _406  and  _407
REMARK  167  A    between atoms: _406  and  _409
REMARK  168  A    between atoms: _409  and  _410
REMARK  169  A    between atoms: _413  and  _415
REMARK  170  A    between atoms: _415  and  _416
REMARK  171  A    between atoms: _418  and  _420
REMARK  172  A    between atoms: _420  and  _421
REMARK  173  A    between atoms: _420  and  _423
REMARK  174  A    between atoms: _423  and  _424
REMARK  175  A    between atoms: _427  and  _429
REMARK  176  A    between atoms: _429  and  _430
REMARK  177  A    between atoms: _429  and  _432
REMARK  178  A    between atoms: _432  and  _433
REMARK  179  A    between atoms: _436  and  _438
REMARK  180  A    between atoms: _438  and  _439
REMARK  181  A    between atoms: _438  and  _441
REMARK  182  A    between atoms: _441  and  _442
REMARK  183  A    between atoms: _447  and  _449
REMARK  184  A    between atoms: _449  and  _450
REMARK  185  A    between atoms: _449  and  _452
REMARK  186  A    between atoms: _452  and  _453
REMARK  187  A    between atoms: _456  and  _458
REMARK  188  A    between atoms: _458  and  _459
REMARK  189  A    between atoms: _458  and  _461
REMARK  190  A    between atoms: _461  and  _462
REMARK  191  A    between atoms: _465  and  _467
REMARK  192  A    between atoms: _467  and  _468
REMARK  193  A    between atoms: _470  and  _472
REMARK  194  A    between atoms: _472  and  _473
REMARK  195  A    between atoms: _472  and  _475
REMARK  196  A    between atoms: _475  and  _476
REMARK  197  A    between atoms: _476  and  _477
REMARK  198  A    between atoms: _477  and  _478
REMARK  199  A    between atoms: _487  and  _489
REMARK  200  A    between atoms: _489  and  _490
REMARK  201  A    between atoms: _492  and  _494
REMARK  202  A    between atoms: _494  and  _495
REMARK  203  A    between atoms: _494  and  _497
REMARK  204  A    between atoms: _497  and  _498
REMARK  205  A    between atoms: _501  and  _503
REMARK  206  A    between atoms: _503  and  _504
REMARK  207  A    between atoms: _503  and  _512
REMARK  208  A    between atoms: _504  and  _505
REMARK  209  A    between atoms: _505  and  _506
REMARK  210  A    between atoms: _506  and  _507
REMARK  211  A    between atoms: _507  and  _508
REMARK  212  A    between atoms: _514  and  _516
REMARK  213  A    between atoms: _516  and  _517
REMARK  214  A    between atoms: _516  and  _519
REMARK  215  A    between atoms: _519  and  _520
REMARK  216  A    between atoms: _525  and  _527
REMARK  217  A    between atoms: _527  and  _528
REMARK  218  A    between atoms: _527  and  _530
REMARK  219  A    between atoms: _530  and  _531
REMARK  220  A    between atoms: _531  and  _532
REMARK  221  A    between atoms: _534  and  _536
REMARK  222  A    between atoms: _536  and  _537
REMARK  223  A    between atoms: _540  and  _542
REMARK  224  A    between atoms: _542  and  _543
REMARK  225  A    between atoms: _542  and  _545
REMARK  226  A    between atoms: _548  and  _550
REMARK  227  A    between atoms: _550  and  _551
REMARK  228  A    between atoms: _550  and  _553
REMARK  229  A    between atoms: _553  and  _554
REMARK  230  A    between atoms: _554  and  _555
REMARK  231  A    between atoms: _560  and  _562
REMARK  232  A    between atoms: _562  and  _563
REMARK  233  A    between atoms: _562  and  _565
REMARK  234  A    between atoms: _565  and  _566
REMARK                            x       y       z     vdW  Elec       q    Type
REMARK                         _______ _______ _______ _____ _____    ______ ____
ROOT
ATOM      1  O   HOH     1      49.626 -47.081  -4.916  0.00  0.00    +0.000 OA
ENDROOT
TORSDOF 0
