REMARK  Name = ../refined-set-2016/2p15/2p15_pocket.pdb
REMARK  283 active torsions:
REMARK  status: ('A' for Active; 'I' for Inactive)
REMARK    1  A    between atoms: _1  and  _3
REMARK    2  A    between atoms: _3  and  _4
REMARK    3  A    between atoms: _3  and  _6
REMARK    4  A    between atoms: _6  and  _7
REMARK    5  A    between atoms: _10  and  _12
REMARK    6  A    between atoms: _12  and  _13
REMARK    7  A    between atoms: _12  and  _15
REMARK    8  A    between atoms: _15  and  _16
REMARK    9  A    between atoms: _19  and  _21
REMARK   10  A    between atoms: _21  and  _22
REMARK   11  A    between atoms: _21  and  _24
REMARK   12  A    between atoms: _24  and  _25
REMARK   13  A    between atoms: _31  and  _33
REMARK   14  A    between atoms: _33  and  _34
REMARK   15  A    between atoms: _33  and  _36
REMARK   16  A    between atoms: _36  and  _37
REMARK   17  A    between atoms: _39  and  _41
REMARK   18  A    between atoms: _41  and  _42
REMARK   19  A    between atoms: _41  and  _44
REMARK   20  A    between atoms: _44  and  _45
REMARK   21  A    between atoms: _45  and  _46
REMARK   22  A    between atoms: _49  and  _51
REMARK   23  A    between atoms: _51  and  _52
REMARK   24  A    between atoms: _51  and  _54
REMARK   25  A    between atoms: _54  and  _55
REMARK   26  A    between atoms: _55  and  _56
REMARK   27  A    between atoms: _58  and  _60
REMARK   28  A    between atoms: _60  and  _61
REMARK   29  A    between atoms: _60  and  _63
REMARK   30  A    between atoms: _63  and  _64
REMARK   31  A    between atoms: _64  and  _65
REMARK   32  A    between atoms: _67  and  _69
REMARK   33  A    between atoms: _69  and  _70
REMARK   34  A    between atoms: _69  and  _72
REMARK   35  A    between atoms: _72  and  _73
REMARK   36  A    between atoms: _76  and  _78
REMARK   37  A    between atoms: _78  and  _79
REMARK   38  A    between atoms: _78  and  _81
REMARK   39  A    between atoms: _81  and  _82
REMARK   40  A    between atoms: _85  and  _87
REMARK   41  A    between atoms: _87  and  _88
REMARK   42  A    between atoms: _87  and  _90
REMARK   43  A    between atoms: _90  and  _91
REMARK   44  A    between atoms: _94  and  _96
REMARK   45  A    between atoms: _96  and  _97
REMARK   46  A    between atoms: _96  and  _99
REMARK   47  A    between atoms: _99  and  _100
REMARK   48  A    between atoms: _105  and  _107
REMARK   49  A    between atoms: _107  and  _108
REMARK   50  A    between atoms: _107  and  _110
REMARK   51  A    between atoms: _110  and  _111
REMARK   52  A    between atoms: _114  and  _116
REMARK   53  A    between atoms: _116  and  _117
REMARK   54  A    between atoms: _120  and  _122
REMARK   55  A    between atoms: _122  and  _123
REMARK   56  A    between atoms: _122  and  _125
REMARK   57  A    between atoms: _125  and  _126
REMARK   58  A    between atoms: _129  and  _131
REMARK   59  A    between atoms: _131  and  _132
REMARK   60  A    between atoms: _131  and  _134
REMARK   61  A    between atoms: _134  and  _135
REMARK   62  A    between atoms: _135  and  _136
REMARK   63  A    between atoms: _136  and  _137
REMARK   64  A    between atoms: _146  and  _148
REMARK   65  A    between atoms: _148  and  _149
REMARK   66  A    between atoms: _148  and  _151
REMARK   67  A    between atoms: _151  and  _152
REMARK   68  A    between atoms: _152  and  _153
REMARK   69  A    between atoms: _156  and  _158
REMARK   70  A    between atoms: _158  and  _159
REMARK   71  A    between atoms: _158  and  _161
REMARK   72  A    between atoms: _161  and  _162
REMARK   73  A    between atoms: _165  and  _167
REMARK   74  A    between atoms: _167  and  _168
REMARK   75  A    between atoms: _167  and  _170
REMARK   76  A    between atoms: _170  and  _171
REMARK   77  A    between atoms: _171  and  _172
REMARK   78  A    between atoms: _174  and  _176
REMARK   79  A    between atoms: _176  and  _177
REMARK   80  A    between atoms: _176  and  _179
REMARK   81  A    between atoms: _179  and  _180
REMARK   82  A    between atoms: _190  and  _192
REMARK   83  A    between atoms: _192  and  _193
REMARK   84  A    between atoms: _192  and  _195
REMARK   85  A    between atoms: _195  and  _196
REMARK   86  A    between atoms: _199  and  _201
REMARK   87  A    between atoms: _201  and  _202
REMARK   88  A    between atoms: _201  and  _204
REMARK   89  A    between atoms: _204  and  _205
REMARK   90  A    between atoms: _205  and  _206
REMARK   91  A    between atoms: _209  and  _211
REMARK   92  A    between atoms: _211  and  _212
REMARK   93  A    between atoms: _211  and  _214
REMARK   94  A    between atoms: _214  and  _215
REMARK   95  A    between atoms: _218  and  _220
REMARK   96  A    between atoms: _220  and  _221
REMARK   97  A    between atoms: _220  and  _223
REMARK   98  A    between atoms: _223  and  _224
REMARK   99  A    between atoms: _227  and  _229
REMARK  100  A    between atoms: _229  and  _230
REMARK  101  A    between atoms: _229  and  _232
REMARK  102  A    between atoms: _232  and  _233
REMARK  103  A    between atoms: _233  and  _234
REMARK  104  A    between atoms: _236  and  _238
REMARK  105  A    between atoms: _238  and  _239
REMARK  106  A    between atoms: _238  and  _241
REMARK  107  A    between atoms: _241  and  _242
REMARK  108  A    between atoms: _245  and  _247
REMARK  109  A    between atoms: _247  and  _248
REMARK  110  A    between atoms: _250  and  _252
REMARK  111  A    between atoms: _252  and  _253
REMARK  112  A    between atoms: _252  and  _255
REMARK  113  A    between atoms: _255  and  _256
REMARK  114  A    between atoms: _259  and  _261
REMARK  115  A    between atoms: _261  and  _262
REMARK  116  A    between atoms: _261  and  _264
REMARK  117  A    between atoms: _267  and  _269
REMARK  118  A    between atoms: _269  and  _270
REMARK  119  A    between atoms: _269  and  _272
REMARK  120  A    between atoms: _272  and  _273
REMARK  121  A    between atoms: _273  and  _274
REMARK  122  A    between atoms: _274  and  _275
REMARK  123  A    between atoms: _284  and  _286
REMARK  124  A    between atoms: _286  and  _287
REMARK  125  A    between atoms: _286  and  _289
REMARK  126  A    between atoms: _289  and  _290
REMARK  127  A    between atoms: _293  and  _295
REMARK  128  A    between atoms: _295  and  _296
REMARK  129  A    between atoms: _295  and  _298
REMARK  130  A    between atoms: _298  and  _299
REMARK  131  A    between atoms: _302  and  _304
REMARK  132  A    between atoms: _304  and  _305
REMARK  133  A    between atoms: _304  and  _307
REMARK  134  A    between atoms: _307  and  _308
REMARK  135  A    between atoms: _314  and  _316
REMARK  136  A    between atoms: _316  and  _317
REMARK  137  A    between atoms: _320  and  _322
REMARK  138  A    between atoms: _322  and  _323
REMARK  139  A    between atoms: _322  and  _325
REMARK  140  A    between atoms: _325  and  _326
REMARK  141  A    between atoms: _329  and  _331
REMARK  142  A    between atoms: _331  and  _332
REMARK  143  A    between atoms: _331  and  _334
REMARK  144  A    between atoms: _334  and  _335
REMARK  145  A    between atoms: _338  and  _340
REMARK  146  A    between atoms: _340  and  _341
REMARK  147  A    between atoms: _340  and  _343
REMARK  148  A    between atoms: _343  and  _344
REMARK  149  A    between atoms: _347  and  _349
REMARK  150  A    between atoms: _349  and  _350
REMARK  151  A    between atoms: _349  and  _352
REMARK  152  A    between atoms: _352  and  _353
REMARK  153  A    between atoms: _353  and  _354
REMARK  154  A    between atoms: _359  and  _361
REMARK  155  A    between atoms: _361  and  _362
REMARK  156  A    between atoms: _361  and  _364
REMARK  157  A    between atoms: _364  and  _365
REMARK  158  A    between atoms: _365  and  _366
REMARK  159  A    between atoms: _366  and  _367
REMARK  160  A    between atoms: _367  and  _368
REMARK  161  A    between atoms: _372  and  _374
REMARK  162  A    between atoms: _374  and  _375
REMARK  163  A    between atoms: _374  and  _377
REMARK  164  A    between atoms: _379  and  _381
REMARK  165  A    between atoms: _381  and  _382
REMARK  166  A    between atoms: _381  and  _384
REMARK  167  A    between atoms: _387  and  _389
REMARK  168  A    between atoms: _389  and  _390
REMARK  169  A    between atoms: _389  and  _392
REMARK  170  A    between atoms: _392  and  _393
REMARK  171  A    between atoms: _393  and  _394
REMARK  172  A    between atoms: _397  and  _399
REMARK  173  A    between atoms: _399  and  _400
REMARK  174  A    between atoms: _402  and  _404
REMARK  175  A    between atoms: _404  and  _405
REMARK  176  A    between atoms: _404  and  _407
REMARK  177  A    between atoms: _407  and  _408
REMARK  178  A    between atoms: _408  and  _409
REMARK  179  A    between atoms: _411  and  _413
REMARK  180  A    between atoms: _413  and  _414
REMARK  181  A    between atoms: _413  and  _416
REMARK  182  A    between atoms: _419  and  _421
REMARK  183  A    between atoms: _421  and  _422
REMARK  184  A    between atoms: _421  and  _424
REMARK  185  A    between atoms: _424  and  _425
REMARK  186  A    between atoms: _425  and  _426
REMARK  187  A    between atoms: _429  and  _431
REMARK  188  A    between atoms: _431  and  _432
REMARK  189  A    between atoms: _431  and  _434
REMARK  190  A    between atoms: _434  and  _435
REMARK  191  A    between atoms: _438  and  _440
REMARK  192  A    between atoms: _440  and  _441
REMARK  193  A    between atoms: _440  and  _443
REMARK  194  A    between atoms: _443  and  _444
REMARK  195  A    between atoms: _450  and  _452
REMARK  196  A    between atoms: _452  and  _453
REMARK  197  A    between atoms: _452  and  _455
REMARK  198  A    between atoms: _455  and  _456
REMARK  199  A    between atoms: _459  and  _461
REMARK  200  A    between atoms: _461  and  _462
REMARK  201  A    between atoms: _461  and  _464
REMARK  202  A    between atoms: _464  and  _465
REMARK  203  A    between atoms: _465  and  _466
REMARK  204  A    between atoms: _468  and  _470
REMARK  205  A    between atoms: _470  and  _471
REMARK  206  A    between atoms: _470  and  _473
REMARK  207  A    between atoms: _473  and  _474
REMARK  208  A    between atoms: _477  and  _479
REMARK  209  A    between atoms: _479  and  _480
REMARK  210  A    between atoms: _479  and  _482
REMARK  211  A    between atoms: _482  and  _483
REMARK  212  A    between atoms: _486  and  _488
REMARK  213  A    between atoms: _488  and  _489
REMARK  214  A    between atoms: _488  and  _491
REMARK  215  A    between atoms: _491  and  _492
REMARK  216  A    between atoms: _492  and  _493
REMARK  217  A    between atoms: _495  and  _497
REMARK  218  A    between atoms: _497  and  _498
REMARK  219  A    between atoms: _497  and  _500
REMARK  220  A    between atoms: _500  and  _501
REMARK  221  A    between atoms: _503  and  _505
REMARK  222  A    between atoms: _505  and  _506
REMARK  223  A    between atoms: _505  and  _508
REMARK  224  A    between atoms: _508  and  _509
REMARK  225  A    between atoms: _509  and  _510
REMARK  226  A    between atoms: _510  and  _511
REMARK  227  A    between atoms: _511  and  _512
REMARK  228  A    between atoms: _516  and  _518
REMARK  229  A    between atoms: _518  and  _519
REMARK  230  A    between atoms: _521  and  _523
REMARK  231  A    between atoms: _523  and  _524
REMARK  232  A    between atoms: _523  and  _526
REMARK  233  A    between atoms: _526  and  _527
REMARK  234  A    between atoms: _527  and  _528
REMARK  235  A    between atoms: _530  and  _532
REMARK  236  A    between atoms: _532  and  _533
REMARK  237  A    between atoms: _532  and  _535
REMARK  238  A    between atoms: _535  and  _536
REMARK  239  A    between atoms: _536  and  _537
REMARK  240  A    between atoms: _540  and  _542
REMARK  241  A    between atoms: _542  and  _543
REMARK  242  A    between atoms: _542  and  _545
REMARK  243  A    between atoms: _545  and  _546
REMARK  244  A    between atoms: _551  and  _553
REMARK  245  A    between atoms: _553  and  _554
REMARK  246  A    between atoms: _553  and  _556
REMARK  247  A    between atoms: _556  and  _557
REMARK  248  A    between atoms: _560  and  _562
REMARK  249  A    between atoms: _562  and  _563
REMARK  250  A    between atoms: _562  and  _565
REMARK  251  A    between atoms: _565  and  _566
REMARK  252  A    between atoms: _571  and  _572
REMARK  253  A    between atoms: _574  and  _576
REMARK  254  A    between atoms: _576  and  _577
REMARK  255  A    between atoms: _576  and  _579
REMARK  256  A    between atoms: _579  and  _580
REMARK  257  A    between atoms: _582  and  _584
REMARK  258  A    between atoms: _584  and  _585
REMARK  259  A    between atoms: _584  and  _587
REMARK  260  A    between atoms: _587  and  _588
REMARK  261  A    between atoms: _588  and  _589
REMARK  262  A    between atoms: _591  and  _593
REMARK  263  A    between atoms: _593  and  _594
REMARK  264  A    between atoms: _593  and  _596
REMARK  265  A    between atoms: _596  and  _597
REMARK  266  A    between atoms: _597  and  _598
REMARK  267  A    between atoms: _598  and  _599
REMARK  268  A    between atoms: _599  and  _600
REMARK  269  A    between atoms: _604  and  _606
REMARK  270  A    between atoms: _606  and  _607
REMARK  271  A    between atoms: _606  and  _609
REMARK  272  A    between atoms: _612  and  _614
REMARK  273  A    between atoms: _614  and  _615
REMARK  274  A    between atoms: _614  and  _617
REMARK  275  A    between atoms: _617  and  _618
REMARK  276  A    between atoms: _621  and  _623
REMARK  277  A    between atoms: _623  and  _624
REMARK  278  A    between atoms: _623  and  _626
REMARK  279  A    between atoms: _626  and  _627
REMARK  280  A    between atoms: _630  and  _632
REMARK  281  A    between atoms: _632  and  _633
REMARK  282  A    between atoms: _632  and  _635
REMARK  283  A    between atoms: _635  and  _636
REMARK                            x       y       z     vdW  Elec       q    Type
REMARK                         _______ _______ _______ _____ _____    ______ ____
ROOT
ATOM      1  C   ILE A   1     -22.314   3.163  12.068  0.00  0.00    +0.238 C 
ATOM      2  N   LEU A   2     -23.594   2.840  12.229  0.00  0.00    -0.298 N 
ATOM      3  H   LEU A   2     -23.977   2.698  13.185  0.00  0.00    +0.150 HD
ATOM      4  O   ILE A   1     -21.838   3.422  10.964  0.00  0.00    -0.274 OA
ENDROOT
BRANCH   1   5
ATOM      5  CA  ILE A   1     -21.424   3.164  13.330  0.00  0.00    +0.145 C 
BRANCH   5   6
ATOM      6  N   ILE A   1     -20.356   2.198  13.135  0.00  0.00    -0.238 NA
ATOM      7  H   ILE A   1     -19.443   2.506  12.743  0.00  0.00    +0.142 HD
ENDBRANCH   5   6
BRANCH   5   8
ATOM      8  CB  ILE A   1     -20.854   4.545  13.622  0.00  0.00    +0.025 C 
ATOM      9  CG2 ILE A   1     -21.998   5.617  13.660  0.00  0.00    +0.002 C 
BRANCH   8  10
ATOM     10  CG1 ILE A   1     -20.101   4.549  14.969  0.00  0.00    +0.002 C 
ATOM     11  CD1 ILE A   1     -19.422   5.968  15.276  0.00  0.00    +0.000 C 
ENDBRANCH   8  10
ENDBRANCH   5   8
ENDBRANCH   1   5
BRANCH   2  12
ATOM     12  CA  LEU A   2     -24.463   2.685  11.066  0.00  0.00    +0.137 C 
BRANCH  12  13
ATOM     13  C   LEU A   2     -25.171   3.994  10.718  0.00  0.00    +0.227 C 
ATOM     14  O   LEU A   2     -25.301   4.879  11.570  0.00  0.00    -0.286 OA
ENDBRANCH  12  13
BRANCH  12  15
ATOM     15  CB  LEU A   2     -25.482   1.554  11.309  0.00  0.00    +0.028 C 
BRANCH  15  16
ATOM     16  CG  LEU A   2     -24.898   0.149  11.576  0.00  0.00    +0.002 C 
ATOM     17  CD2 LEU A   2     -26.021  -0.859  11.585  0.00  0.00    +0.000 C 
ATOM     18  CD1 LEU A   2     -23.794  -0.272  10.581  0.00  0.00    +0.000 C 
ENDBRANCH  15  16
ENDBRANCH  12  15
ENDBRANCH   2  12
TORSDOF 8
REMARK  Name = ../refined-set-2016/2p15/2p15_pocket.pdb
REMARK  283 active torsions:
REMARK  status: ('A' for Active; 'I' for Inactive)
REMARK    1  A    between atoms: _1  and  _3
REMARK    2  A    between atoms: _3  and  _4
REMARK    3  A    between atoms: _3  and  _6
REMARK    4  A    between atoms: _6  and  _7
REMARK    5  A    between atoms: _10  and  _12
REMARK    6  A    between atoms: _12  and  _13
REMARK    7  A    between atoms: _12  and  _15
REMARK    8  A    between atoms: _15  and  _16
REMARK    9  A    between atoms: _19  and  _21
REMARK   10  A    between atoms: _21  and  _22
REMARK   11  A    between atoms: _21  and  _24
REMARK   12  A    between atoms: _24  and  _25
REMARK   13  A    between atoms: _31  and  _33
REMARK   14  A    between atoms: _33  and  _34
REMARK   15  A    between atoms: _33  and  _36
REMARK   16  A    between atoms: _36  and  _37
REMARK   17  A    between atoms: _39  and  _41
REMARK   18  A    between atoms: _41  and  _42
REMARK   19  A    between atoms: _41  and  _44
REMARK   20  A    between atoms: _44  and  _45
REMARK   21  A    between atoms: _45  and  _46
REMARK   22  A    between atoms: _49  and  _51
REMARK   23  A    between atoms: _51  and  _52
REMARK   24  A    between atoms: _51  and  _54
REMARK   25  A    between atoms: _54  and  _55
REMARK   26  A    between atoms: _55  and  _56
REMARK   27  A    between atoms: _58  and  _60
REMARK   28  A    between atoms: _60  and  _61
REMARK   29  A    between atoms: _60  and  _63
REMARK   30  A    between atoms: _63  and  _64
REMARK   31  A    between atoms: _64  and  _65
REMARK   32  A    between atoms: _67  and  _69
REMARK   33  A    between atoms: _69  and  _70
REMARK   34  A    between atoms: _69  and  _72
REMARK   35  A    between atoms: _72  and  _73
REMARK   36  A    between atoms: _76  and  _78
REMARK   37  A    between atoms: _78  and  _79
REMARK   38  A    between atoms: _78  and  _81
REMARK   39  A    between atoms: _81  and  _82
REMARK   40  A    between atoms: _85  and  _87
REMARK   41  A    between atoms: _87  and  _88
REMARK   42  A    between atoms: _87  and  _90
REMARK   43  A    between atoms: _90  and  _91
REMARK   44  A    between atoms: _94  and  _96
REMARK   45  A    between atoms: _96  and  _97
REMARK   46  A    between atoms: _96  and  _99
REMARK   47  A    between atoms: _99  and  _100
REMARK   48  A    between atoms: _105  and  _107
REMARK   49  A    between atoms: _107  and  _108
REMARK   50  A    between atoms: _107  and  _110
REMARK   51  A    between atoms: _110  and  _111
REMARK   52  A    between atoms: _114  and  _116
REMARK   53  A    between atoms: _116  and  _117
REMARK   54  A    between atoms: _120  and  _122
REMARK   55  A    between atoms: _122  and  _123
REMARK   56  A    between atoms: _122  and  _125
REMARK   57  A    between atoms: _125  and  _126
REMARK   58  A    between atoms: _129  and  _131
REMARK   59  A    between atoms: _131  and  _132
REMARK   60  A    between atoms: _131  and  _134
REMARK   61  A    between atoms: _134  and  _135
REMARK   62  A    between atoms: _135  and  _136
REMARK   63  A    between atoms: _136  and  _137
REMARK   64  A    between atoms: _146  and  _148
REMARK   65  A    between atoms: _148  and  _149
REMARK   66  A    between atoms: _148  and  _151
REMARK   67  A    between atoms: _151  and  _152
REMARK   68  A    between atoms: _152  and  _153
REMARK   69  A    between atoms: _156  and  _158
REMARK   70  A    between atoms: _158  and  _159
REMARK   71  A    between atoms: _158  and  _161
REMARK   72  A    between atoms: _161  and  _162
REMARK   73  A    between atoms: _165  and  _167
REMARK   74  A    between atoms: _167  and  _168
REMARK   75  A    between atoms: _167  and  _170
REMARK   76  A    between atoms: _170  and  _171
REMARK   77  A    between atoms: _171  and  _172
REMARK   78  A    between atoms: _174  and  _176
REMARK   79  A    between atoms: _176  and  _177
REMARK   80  A    between atoms: _176  and  _179
REMARK   81  A    between atoms: _179  and  _180
REMARK   82  A    between atoms: _190  and  _192
REMARK   83  A    between atoms: _192  and  _193
REMARK   84  A    between atoms: _192  and  _195
REMARK   85  A    between atoms: _195  and  _196
REMARK   86  A    between atoms: _199  and  _201
REMARK   87  A    between atoms: _201  and  _202
REMARK   88  A    between atoms: _201  and  _204
REMARK   89  A    between atoms: _204  and  _205
REMARK   90  A    between atoms: _205  and  _206
REMARK   91  A    between atoms: _209  and  _211
REMARK   92  A    between atoms: _211  and  _212
REMARK   93  A    between atoms: _211  and  _214
REMARK   94  A    between atoms: _214  and  _215
REMARK   95  A    between atoms: _218  and  _220
REMARK   96  A    between atoms: _220  and  _221
REMARK   97  A    between atoms: _220  and  _223
REMARK   98  A    between atoms: _223  and  _224
REMARK   99  A    between atoms: _227  and  _229
REMARK  100  A    between atoms: _229  and  _230
REMARK  101  A    between atoms: _229  and  _232
REMARK  102  A    between atoms: _232  and  _233
REMARK  103  A    between atoms: _233  and  _234
REMARK  104  A    between atoms: _236  and  _238
REMARK  105  A    between atoms: _238  and  _239
REMARK  106  A    between atoms: _238  and  _241
REMARK  107  A    between atoms: _241  and  _242
REMARK  108  A    between atoms: _245  and  _247
REMARK  109  A    between atoms: _247  and  _248
REMARK  110  A    between atoms: _250  and  _252
REMARK  111  A    between atoms: _252  and  _253
REMARK  112  A    between atoms: _252  and  _255
REMARK  113  A    between atoms: _255  and  _256
REMARK  114  A    between atoms: _259  and  _261
REMARK  115  A    between atoms: _261  and  _262
REMARK  116  A    between atoms: _261  and  _264
REMARK  117  A    between atoms: _267  and  _269
REMARK  118  A    between atoms: _269  and  _270
REMARK  119  A    between atoms: _269  and  _272
REMARK  120  A    between atoms: _272  and  _273
REMARK  121  A    between atoms: _273  and  _274
REMARK  122  A    between atoms: _274  and  _275
REMARK  123  A    between atoms: _284  and  _286
REMARK  124  A    between atoms: _286  and  _287
REMARK  125  A    between atoms: _286  and  _289
REMARK  126  A    between atoms: _289  and  _290
REMARK  127  A    between atoms: _293  and  _295
REMARK  128  A    between atoms: _295  and  _296
REMARK  129  A    between atoms: _295  and  _298
REMARK  130  A    between atoms: _298  and  _299
REMARK  131  A    between atoms: _302  and  _304
REMARK  132  A    between atoms: _304  and  _305
REMARK  133  A    between atoms: _304  and  _307
REMARK  134  A    between atoms: _307  and  _308
REMARK  135  A    between atoms: _314  and  _316
REMARK  136  A    between atoms: _316  and  _317
REMARK  137  A    between atoms: _320  and  _322
REMARK  138  A    between atoms: _322  and  _323
REMARK  139  A    between atoms: _322  and  _325
REMARK  140  A    between atoms: _325  and  _326
REMARK  141  A    between atoms: _329  and  _331
REMARK  142  A    between atoms: _331  and  _332
REMARK  143  A    between atoms: _331  and  _334
REMARK  144  A    between atoms: _334  and  _335
REMARK  145  A    between atoms: _338  and  _340
REMARK  146  A    between atoms: _340  and  _341
REMARK  147  A    between atoms: _340  and  _343
REMARK  148  A    between atoms: _343  and  _344
REMARK  149  A    between atoms: _347  and  _349
REMARK  150  A    between atoms: _349  and  _350
REMARK  151  A    between atoms: _349  and  _352
REMARK  152  A    between atoms: _352  and  _353
REMARK  153  A    between atoms: _353  and  _354
REMARK  154  A    between atoms: _359  and  _361
REMARK  155  A    between atoms: _361  and  _362
REMARK  156  A    between atoms: _361  and  _364
REMARK  157  A    between atoms: _364  and  _365
REMARK  158  A    between atoms: _365  and  _366
REMARK  159  A    between atoms: _366  and  _367
REMARK  160  A    between atoms: _367  and  _368
REMARK  161  A    between atoms: _372  and  _374
REMARK  162  A    between atoms: _374  and  _375
REMARK  163  A    between atoms: _374  and  _377
REMARK  164  A    between atoms: _379  and  _381
REMARK  165  A    between atoms: _381  and  _382
REMARK  166  A    between atoms: _381  and  _384
REMARK  167  A    between atoms: _387  and  _389
REMARK  168  A    between atoms: _389  and  _390
REMARK  169  A    between atoms: _389  and  _392
REMARK  170  A    between atoms: _392  and  _393
REMARK  171  A    between atoms: _393  and  _394
REMARK  172  A    between atoms: _397  and  _399
REMARK  173  A    between atoms: _399  and  _400
REMARK  174  A    between atoms: _402  and  _404
REMARK  175  A    between atoms: _404  and  _405
REMARK  176  A    between atoms: _404  and  _407
REMARK  177  A    between atoms: _407  and  _408
REMARK  178  A    between atoms: _408  and  _409
REMARK  179  A    between atoms: _411  and  _413
REMARK  180  A    between atoms: _413  and  _414
REMARK  181  A    between atoms: _413  and  _416
REMARK  182  A    between atoms: _419  and  _421
REMARK  183  A    between atoms: _421  and  _422
REMARK  184  A    between atoms: _421  and  _424
REMARK  185  A    between atoms: _424  and  _425
REMARK  186  A    between atoms: _425  and  _426
REMARK  187  A    between atoms: _429  and  _431
REMARK  188  A    between atoms: _431  and  _432
REMARK  189  A    between atoms: _431  and  _434
REMARK  190  A    between atoms: _434  and  _435
REMARK  191  A    between atoms: _438  and  _440
REMARK  192  A    between atoms: _440  and  _441
REMARK  193  A    between atoms: _440  and  _443
REMARK  194  A    between atoms: _443  and  _444
REMARK  195  A    between atoms: _450  and  _452
REMARK  196  A    between atoms: _452  and  _453
REMARK  197  A    between atoms: _452  and  _455
REMARK  198  A    between atoms: _455  and  _456
REMARK  199  A    between atoms: _459  and  _461
REMARK  200  A    between atoms: _461  and  _462
REMARK  201  A    between atoms: _461  and  _464
REMARK  202  A    between atoms: _464  and  _465
REMARK  203  A    between atoms: _465  and  _466
REMARK  204  A    between atoms: _468  and  _470
REMARK  205  A    between atoms: _470  and  _471
REMARK  206  A    between atoms: _470  and  _473
REMARK  207  A    between atoms: _473  and  _474
REMARK  208  A    between atoms: _477  and  _479
REMARK  209  A    between atoms: _479  and  _480
REMARK  210  A    between atoms: _479  and  _482
REMARK  211  A    between atoms: _482  and  _483
REMARK  212  A    between atoms: _486  and  _488
REMARK  213  A    between atoms: _488  and  _489
REMARK  214  A    between atoms: _488  and  _491
REMARK  215  A    between atoms: _491  and  _492
REMARK  216  A    between atoms: _492  and  _493
REMARK  217  A    between atoms: _495  and  _497
REMARK  218  A    between atoms: _497  and  _498
REMARK  219  A    between atoms: _497  and  _500
REMARK  220  A    between atoms: _500  and  _501
REMARK  221  A    between atoms: _503  and  _505
REMARK  222  A    between atoms: _505  and  _506
REMARK  223  A    between atoms: _505  and  _508
REMARK  224  A    between atoms: _508  and  _509
REMARK  225  A    between atoms: _509  and  _510
REMARK  226  A    between atoms: _510  and  _511
REMARK  227  A    between atoms: _511  and  _512
REMARK  228  A    between atoms: _516  and  _518
REMARK  229  A    between atoms: _518  and  _519
REMARK  230  A    between atoms: _521  and  _523
REMARK  231  A    between atoms: _523  and  _524
REMARK  232  A    between atoms: _523  and  _526
REMARK  233  A    between atoms: _526  and  _527
REMARK  234  A    between atoms: _527  and  _528
REMARK  235  A    between atoms: _530  and  _532
REMARK  236  A    between atoms: _532  and  _533
REMARK  237  A    between atoms: _532  and  _535
REMARK  238  A    between atoms: _535  and  _536
REMARK  239  A    between atoms: _536  and  _537
REMARK  240  A    between atoms: _540  and  _542
REMARK  241  A    between atoms: _542  and  _543
REMARK  242  A    between atoms: _542  and  _545
REMARK  243  A    between atoms: _545  and  _546
REMARK  244  A    between atoms: _551  and  _553
REMARK  245  A    between atoms: _553  and  _554
REMARK  246  A    between atoms: _553  and  _556
REMARK  247  A    between atoms: _556  and  _557
REMARK  248  A    between atoms: _560  and  _562
REMARK  249  A    between atoms: _562  and  _563
REMARK  250  A    between atoms: _562  and  _565
REMARK  251  A    between atoms: _565  and  _566
REMARK  252  A    between atoms: _571  and  _572
REMARK  253  A    between atoms: _574  and  _576
REMARK  254  A    between atoms: _576  and  _577
REMARK  255  A    between atoms: _576  and  _579
REMARK  256  A    between atoms: _579  and  _580
REMARK  257  A    between atoms: _582  and  _584
REMARK  258  A    between atoms: _584  and  _585
REMARK  259  A    between atoms: _584  and  _587
REMARK  260  A    between atoms: _587  and  _588
REMARK  261  A    between atoms: _588  and  _589
REMARK  262  A    between atoms: _591  and  _593
REMARK  263  A    between atoms: _593  and  _594
REMARK  264  A    between atoms: _593  and  _596
REMARK  265  A    between atoms: _596  and  _597
REMARK  266  A    between atoms: _597  and  _598
REMARK  267  A    between atoms: _598  and  _599
REMARK  268  A    between atoms: _599  and  _600
REMARK  269  A    between atoms: _604  and  _606
REMARK  270  A    between atoms: _606  and  _607
REMARK  271  A    between atoms: _606  and  _609
REMARK  272  A    between atoms: _612  and  _614
REMARK  273  A    between atoms: _614  and  _615
REMARK  274  A    between atoms: _614  and  _617
REMARK  275  A    between atoms: _617  and  _618
REMARK  276  A    between atoms: _621  and  _623
REMARK  277  A    between atoms: _623  and  _624
REMARK  278  A    between atoms: _623  and  _626
REMARK  279  A    between atoms: _626  and  _627
REMARK  280  A    between atoms: _630  and  _632
REMARK  281  A    between atoms: _632  and  _633
REMARK  282  A    between atoms: _632  and  _635
REMARK  283  A    between atoms: _635  and  _636
REMARK                            x       y       z     vdW  Elec       q    Type
REMARK                         _______ _______ _______ _____ _____    ______ ____
ROOT
ATOM      1  CA  SER A   2     -44.169  11.861  11.680  0.00  0.00    +0.178 C 
ENDROOT
BRANCH   1   4
ATOM      2  C   PHE A   1     -42.444  13.502  11.099  0.00  0.00    +0.239 C 
ATOM      3  O   PHE A   1     -43.059  14.410  11.631  0.00  0.00    -0.274 OA
ATOM      4  N   SER A   2     -42.937  12.271  10.995  0.00  0.00    -0.295 N 
ATOM      5  H   SER A   2     -42.433  11.576  10.409  0.00  0.00    +0.150 HD
BRANCH   2   6
ATOM      6  CA  PHE A   1     -41.022  13.734  10.556  0.00  0.00    +0.149 C 
BRANCH   6   7
ATOM      7  N   PHE A   1     -40.790  15.052   9.937  0.00  0.00    -0.238 NA
ATOM      8  H   PHE A   1     -40.095  15.685  10.383  0.00  0.00    +0.142 HD
ENDBRANCH   6   7
BRANCH   6   9
ATOM      9  CB  PHE A   1     -40.080  13.565  11.748  0.00  0.00    +0.053 C 
BRANCH   9  10
ATOM     10  CG  PHE A   1     -38.629  13.469  11.383  0.00  0.00    -0.020 A 
ATOM     11  CD2 PHE A   1     -37.678  14.205  12.093  0.00  0.00    -0.004 A 
ATOM     12  CE2 PHE A   1     -36.309  14.101  11.779  0.00  0.00    -0.000 A 
ATOM     13  CZ  PHE A   1     -35.905  13.255  10.754  0.00  0.00    -0.000 A 
ATOM     14  CE1 PHE A   1     -36.856  12.507  10.043  0.00  0.00    -0.000 A 
ATOM     15  CD1 PHE A   1     -38.202  12.604  10.373  0.00  0.00    -0.004 A 
ENDBRANCH   9  10
ENDBRANCH   6   9
ENDBRANCH   2   6
ENDBRANCH   1   4
BRANCH   1  16
ATOM     16  C   SER A   2     -43.836  10.769  12.698  0.00  0.00    +0.243 C 
ATOM     17  N   GLU A   3     -44.828  10.362  13.489  0.00  0.00    -0.298 N 
ATOM     18  H   GLU A   3     -45.753  10.831  13.410  0.00  0.00    +0.150 HD
ATOM     19  O   SER A   2     -42.688  10.308  12.760  0.00  0.00    -0.273 OA
BRANCH  17  20
ATOM     20  CA  GLU A   3     -44.669   9.273  14.473  0.00  0.00    +0.137 C 
BRANCH  20  21
ATOM     21  C   GLU A   3     -44.320   7.949  13.800  0.00  0.00    +0.227 C 
ATOM     22  O   GLU A   3     -43.412   7.255  14.251  0.00  0.00    -0.286 OA
ENDBRANCH  20  21
BRANCH  20  23
ATOM     23  CB  GLU A   3     -45.920   9.107  15.351  0.00  0.00    +0.039 C 
BRANCH  23  24
ATOM     24  CG  GLU A   3     -45.777   8.057  16.466  0.00  0.00    +0.116 C 
BRANCH  24  25
ATOM     25  CD  GLU A   3     -46.961   8.067  17.429  0.00  0.00    +0.365 C 
ATOM     26  OE2 GLU A   3     -46.842   8.647  18.542  0.00  0.00    -0.246 OA
ATOM     27  OE1 GLU A   3     -48.031   7.526  17.052  0.00  0.00    -0.246 OA
ENDBRANCH  24  25
ENDBRANCH  23  24
ENDBRANCH  20  23
ENDBRANCH  17  20
ENDBRANCH   1  16
BRANCH   1  28
ATOM     28  CB  SER A   2     -45.203  11.348  10.676  0.00  0.00    +0.166 C 
BRANCH  28  29
ATOM     29  OG  SER A   2     -44.879  10.040  10.223  0.00  0.00    -0.380 OA
ATOM     30  H   SER A   2     -45.565   9.737   9.576  0.00  0.00    +0.211 HD
ENDBRANCH  28  29
ENDBRANCH   1  28
TORSDOF 13
REMARK  Name = ../refined-set-2016/2p15/2p15_pocket.pdb
REMARK  283 active torsions:
REMARK  status: ('A' for Active; 'I' for Inactive)
REMARK    1  A    between atoms: _1  and  _3
REMARK    2  A    between atoms: _3  and  _4
REMARK    3  A    between atoms: _3  and  _6
REMARK    4  A    between atoms: _6  and  _7
REMARK    5  A    between atoms: _10  and  _12
REMARK    6  A    between atoms: _12  and  _13
REMARK    7  A    between atoms: _12  and  _15
REMARK    8  A    between atoms: _15  and  _16
REMARK    9  A    between atoms: _19  and  _21
REMARK   10  A    between atoms: _21  and  _22
REMARK   11  A    between atoms: _21  and  _24
REMARK   12  A    between atoms: _24  and  _25
REMARK   13  A    between atoms: _31  and  _33
REMARK   14  A    between atoms: _33  and  _34
REMARK   15  A    between atoms: _33  and  _36
REMARK   16  A    between atoms: _36  and  _37
REMARK   17  A    between atoms: _39  and  _41
REMARK   18  A    between atoms: _41  and  _42
REMARK   19  A    between atoms: _41  and  _44
REMARK   20  A    between atoms: _44  and  _45
REMARK   21  A    between atoms: _45  and  _46
REMARK   22  A    between atoms: _49  and  _51
REMARK   23  A    between atoms: _51  and  _52
REMARK   24  A    between atoms: _51  and  _54
REMARK   25  A    between atoms: _54  and  _55
REMARK   26  A    between atoms: _55  and  _56
REMARK   27  A    between atoms: _58  and  _60
REMARK   28  A    between atoms: _60  and  _61
REMARK   29  A    between atoms: _60  and  _63
REMARK   30  A    between atoms: _63  and  _64
REMARK   31  A    between atoms: _64  and  _65
REMARK   32  A    between atoms: _67  and  _69
REMARK   33  A    between atoms: _69  and  _70
REMARK   34  A    between atoms: _69  and  _72
REMARK   35  A    between atoms: _72  and  _73
REMARK   36  A    between atoms: _76  and  _78
REMARK   37  A    between atoms: _78  and  _79
REMARK   38  A    between atoms: _78  and  _81
REMARK   39  A    between atoms: _81  and  _82
REMARK   40  A    between atoms: _85  and  _87
REMARK   41  A    between atoms: _87  and  _88
REMARK   42  A    between atoms: _87  and  _90
REMARK   43  A    between atoms: _90  and  _91
REMARK   44  A    between atoms: _94  and  _96
REMARK   45  A    between atoms: _96  and  _97
REMARK   46  A    between atoms: _96  and  _99
REMARK   47  A    between atoms: _99  and  _100
REMARK   48  A    between atoms: _105  and  _107
REMARK   49  A    between atoms: _107  and  _108
REMARK   50  A    between atoms: _107  and  _110
REMARK   51  A    between atoms: _110  and  _111
REMARK   52  A    between atoms: _114  and  _116
REMARK   53  A    between atoms: _116  and  _117
REMARK   54  A    between atoms: _120  and  _122
REMARK   55  A    between atoms: _122  and  _123
REMARK   56  A    between atoms: _122  and  _125
REMARK   57  A    between atoms: _125  and  _126
REMARK   58  A    between atoms: _129  and  _131
REMARK   59  A    between atoms: _131  and  _132
REMARK   60  A    between atoms: _131  and  _134
REMARK   61  A    between atoms: _134  and  _135
REMARK   62  A    between atoms: _135  and  _136
REMARK   63  A    between atoms: _136  and  _137
REMARK   64  A    between atoms: _146  and  _148
REMARK   65  A    between atoms: _148  and  _149
REMARK   66  A    between atoms: _148  and  _151
REMARK   67  A    between atoms: _151  and  _152
REMARK   68  A    between atoms: _152  and  _153
REMARK   69  A    between atoms: _156  and  _158
REMARK   70  A    between atoms: _158  and  _159
REMARK   71  A    between atoms: _158  and  _161
REMARK   72  A    between atoms: _161  and  _162
REMARK   73  A    between atoms: _165  and  _167
REMARK   74  A    between atoms: _167  and  _168
REMARK   75  A    between atoms: _167  and  _170
REMARK   76  A    between atoms: _170  and  _171
REMARK   77  A    between atoms: _171  and  _172
REMARK   78  A    between atoms: _174  and  _176
REMARK   79  A    between atoms: _176  and  _177
REMARK   80  A    between atoms: _176  and  _179
REMARK   81  A    between atoms: _179  and  _180
REMARK   82  A    between atoms: _190  and  _192
REMARK   83  A    between atoms: _192  and  _193
REMARK   84  A    between atoms: _192  and  _195
REMARK   85  A    between atoms: _195  and  _196
REMARK   86  A    between atoms: _199  and  _201
REMARK   87  A    between atoms: _201  and  _202
REMARK   88  A    between atoms: _201  and  _204
REMARK   89  A    between atoms: _204  and  _205
REMARK   90  A    between atoms: _205  and  _206
REMARK   91  A    between atoms: _209  and  _211
REMARK   92  A    between atoms: _211  and  _212
REMARK   93  A    between atoms: _211  and  _214
REMARK   94  A    between atoms: _214  and  _215
REMARK   95  A    between atoms: _218  and  _220
REMARK   96  A    between atoms: _220  and  _221
REMARK   97  A    between atoms: _220  and  _223
REMARK   98  A    between atoms: _223  and  _224
REMARK   99  A    between atoms: _227  and  _229
REMARK  100  A    between atoms: _229  and  _230
REMARK  101  A    between atoms: _229  and  _232
REMARK  102  A    between atoms: _232  and  _233
REMARK  103  A    between atoms: _233  and  _234
REMARK  104  A    between atoms: _236  and  _238
REMARK  105  A    between atoms: _238  and  _239
REMARK  106  A    between atoms: _238  and  _241
REMARK  107  A    between atoms: _241  and  _242
REMARK  108  A    between atoms: _245  and  _247
REMARK  109  A    between atoms: _247  and  _248
REMARK  110  A    between atoms: _250  and  _252
REMARK  111  A    between atoms: _252  and  _253
REMARK  112  A    between atoms: _252  and  _255
REMARK  113  A    between atoms: _255  and  _256
REMARK  114  A    between atoms: _259  and  _261
REMARK  115  A    between atoms: _261  and  _262
REMARK  116  A    between atoms: _261  and  _264
REMARK  117  A    between atoms: _267  and  _269
REMARK  118  A    between atoms: _269  and  _270
REMARK  119  A    between atoms: _269  and  _272
REMARK  120  A    between atoms: _272  and  _273
REMARK  121  A    between atoms: _273  and  _274
REMARK  122  A    between atoms: _274  and  _275
REMARK  123  A    between atoms: _284  and  _286
REMARK  124  A    between atoms: _286  and  _287
REMARK  125  A    between atoms: _286  and  _289
REMARK  126  A    between atoms: _289  and  _290
REMARK  127  A    between atoms: _293  and  _295
REMARK  128  A    between atoms: _295  and  _296
REMARK  129  A    between atoms: _295  and  _298
REMARK  130  A    between atoms: _298  and  _299
REMARK  131  A    between atoms: _302  and  _304
REMARK  132  A    between atoms: _304  and  _305
REMARK  133  A    between atoms: _304  and  _307
REMARK  134  A    between atoms: _307  and  _308
REMARK  135  A    between atoms: _314  and  _316
REMARK  136  A    between atoms: _316  and  _317
REMARK  137  A    between atoms: _320  and  _322
REMARK  138  A    between atoms: _322  and  _323
REMARK  139  A    between atoms: _322  and  _325
REMARK  140  A    between atoms: _325  and  _326
REMARK  141  A    between atoms: _329  and  _331
REMARK  142  A    between atoms: _331  and  _332
REMARK  143  A    between atoms: _331  and  _334
REMARK  144  A    between atoms: _334  and  _335
REMARK  145  A    between atoms: _338  and  _340
REMARK  146  A    between atoms: _340  and  _341
REMARK  147  A    between atoms: _340  and  _343
REMARK  148  A    between atoms: _343  and  _344
REMARK  149  A    between atoms: _347  and  _349
REMARK  150  A    between atoms: _349  and  _350
REMARK  151  A    between atoms: _349  and  _352
REMARK  152  A    between atoms: _352  and  _353
REMARK  153  A    between atoms: _353  and  _354
REMARK  154  A    between atoms: _359  and  _361
REMARK  155  A    between atoms: _361  and  _362
REMARK  156  A    between atoms: _361  and  _364
REMARK  157  A    between atoms: _364  and  _365
REMARK  158  A    between atoms: _365  and  _366
REMARK  159  A    between atoms: _366  and  _367
REMARK  160  A    between atoms: _367  and  _368
REMARK  161  A    between atoms: _372  and  _374
REMARK  162  A    between atoms: _374  and  _375
REMARK  163  A    between atoms: _374  and  _377
REMARK  164  A    between atoms: _379  and  _381
REMARK  165  A    between atoms: _381  and  _382
REMARK  166  A    between atoms: _381  and  _384
REMARK  167  A    between atoms: _387  and  _389
REMARK  168  A    between atoms: _389  and  _390
REMARK  169  A    between atoms: _389  and  _392
REMARK  170  A    between atoms: _392  and  _393
REMARK  171  A    between atoms: _393  and  _394
REMARK  172  A    between atoms: _397  and  _399
REMARK  173  A    between atoms: _399  and  _400
REMARK  174  A    between atoms: _402  and  _404
REMARK  175  A    between atoms: _404  and  _405
REMARK  176  A    between atoms: _404  and  _407
REMARK  177  A    between atoms: _407  and  _408
REMARK  178  A    between atoms: _408  and  _409
REMARK  179  A    between atoms: _411  and  _413
REMARK  180  A    between atoms: _413  and  _414
REMARK  181  A    between atoms: _413  and  _416
REMARK  182  A    between atoms: _419  and  _421
REMARK  183  A    between atoms: _421  and  _422
REMARK  184  A    between atoms: _421  and  _424
REMARK  185  A    between atoms: _424  and  _425
REMARK  186  A    between atoms: _425  and  _426
REMARK  187  A    between atoms: _429  and  _431
REMARK  188  A    between atoms: _431  and  _432
REMARK  189  A    between atoms: _431  and  _434
REMARK  190  A    between atoms: _434  and  _435
REMARK  191  A    between atoms: _438  and  _440
REMARK  192  A    between atoms: _440  and  _441
REMARK  193  A    between atoms: _440  and  _443
REMARK  194  A    between atoms: _443  and  _444
REMARK  195  A    between atoms: _450  and  _452
REMARK  196  A    between atoms: _452  and  _453
REMARK  197  A    between atoms: _452  and  _455
REMARK  198  A    between atoms: _455  and  _456
REMARK  199  A    between atoms: _459  and  _461
REMARK  200  A    between atoms: _461  and  _462
REMARK  201  A    between atoms: _461  and  _464
REMARK  202  A    between atoms: _464  and  _465
REMARK  203  A    between atoms: _465  and  _466
REMARK  204  A    between atoms: _468  and  _470
REMARK  205  A    between atoms: _470  and  _471
REMARK  206  A    between atoms: _470  and  _473
REMARK  207  A    between atoms: _473  and  _474
REMARK  208  A    between atoms: _477  and  _479
REMARK  209  A    between atoms: _479  and  _480
REMARK  210  A    between atoms: _479  and  _482
REMARK  211  A    between atoms: _482  and  _483
REMARK  212  A    between atoms: _486  and  _488
REMARK  213  A    between atoms: _488  and  _489
REMARK  214  A    between atoms: _488  and  _491
REMARK  215  A    between atoms: _491  and  _492
REMARK  216  A    between atoms: _492  and  _493
REMARK  217  A    between atoms: _495  and  _497
REMARK  218  A    between atoms: _497  and  _498
REMARK  219  A    between atoms: _497  and  _500
REMARK  220  A    between atoms: _500  and  _501
REMARK  221  A    between atoms: _503  and  _505
REMARK  222  A    between atoms: _505  and  _506
REMARK  223  A    between atoms: _505  and  _508
REMARK  224  A    between atoms: _508  and  _509
REMARK  225  A    between atoms: _509  and  _510
REMARK  226  A    between atoms: _510  and  _511
REMARK  227  A    between atoms: _511  and  _512
REMARK  228  A    between atoms: _516  and  _518
REMARK  229  A    between atoms: _518  and  _519
REMARK  230  A    between atoms: _521  and  _523
REMARK  231  A    between atoms: _523  and  _524
REMARK  232  A    between atoms: _523  and  _526
REMARK  233  A    between atoms: _526  and  _527
REMARK  234  A    between atoms: _527  and  _528
REMARK  235  A    between atoms: _530  and  _532
REMARK  236  A    between atoms: _532  and  _533
REMARK  237  A    between atoms: _532  and  _535
REMARK  238  A    between atoms: _535  and  _536
REMARK  239  A    between atoms: _536  and  _537
REMARK  240  A    between atoms: _540  and  _542
REMARK  241  A    between atoms: _542  and  _543
REMARK  242  A    between atoms: _542  and  _545
REMARK  243  A    between atoms: _545  and  _546
REMARK  244  A    between atoms: _551  and  _553
REMARK  245  A    between atoms: _553  and  _554
REMARK  246  A    between atoms: _553  and  _556
REMARK  247  A    between atoms: _556  and  _557
REMARK  248  A    between atoms: _560  and  _562
REMARK  249  A    between atoms: _562  and  _563
REMARK  250  A    between atoms: _562  and  _565
REMARK  251  A    between atoms: _565  and  _566
REMARK  252  A    between atoms: _571  and  _572
REMARK  253  A    between atoms: _574  and  _576
REMARK  254  A    between atoms: _576  and  _577
REMARK  255  A    between atoms: _576  and  _579
REMARK  256  A    between atoms: _579  and  _580
REMARK  257  A    between atoms: _582  and  _584
REMARK  258  A    between atoms: _584  and  _585
REMARK  259  A    between atoms: _584  and  _587
REMARK  260  A    between atoms: _587  and  _588
REMARK  261  A    between atoms: _588  and  _589
REMARK  262  A    between atoms: _591  and  _593
REMARK  263  A    between atoms: _593  and  _594
REMARK  264  A    between atoms: _593  and  _596
REMARK  265  A    between atoms: _596  and  _597
REMARK  266  A    between atoms: _597  and  _598
REMARK  267  A    between atoms: _598  and  _599
REMARK  268  A    between atoms: _599  and  _600
REMARK  269  A    between atoms: _604  and  _606
REMARK  270  A    between atoms: _606  and  _607
REMARK  271  A    between atoms: _606  and  _609
REMARK  272  A    between atoms: _612  and  _614
REMARK  273  A    between atoms: _614  and  _615
REMARK  274  A    between atoms: _614  and  _617
REMARK  275  A    between atoms: _617  and  _618
REMARK  276  A    between atoms: _621  and  _623
REMARK  277  A    between atoms: _623  and  _624
REMARK  278  A    between atoms: _623  and  _626
REMARK  279  A    between atoms: _626  and  _627
REMARK  280  A    between atoms: _630  and  _632
REMARK  281  A    between atoms: _632  and  _633
REMARK  282  A    between atoms: _632  and  _635
REMARK  283  A    between atoms: _635  and  _636
REMARK                            x       y       z     vdW  Elec       q    Type
REMARK                         _______ _______ _______ _____ _____    ______ ____
ROOT
ATOM      1  C   MET A   1     -39.328   7.096  13.690  0.00  0.00    +0.238 C 
ATOM      2  N   MET A   2     -40.434   6.481  14.101  0.00  0.00    -0.298 N 
ATOM      3  H   MET A   2     -41.362   6.939  14.002  0.00  0.00    +0.150 HD
ATOM      4  O   MET A   1     -38.210   6.602  13.837  0.00  0.00    -0.274 OA
ENDROOT
BRANCH   1   5
ATOM      5  CA  MET A   1     -39.483   8.459  13.000  0.00  0.00    +0.146 C 
BRANCH   5   6
ATOM      6  N   MET A   1     -40.550   8.428  12.026  0.00  0.00    -0.238 NA
ATOM      7  H   MET A   1     -41.401   9.004  12.185  0.00  0.00    +0.142 HD
ENDBRANCH   5   6
BRANCH   5   8
ATOM      8  CB  MET A   1     -39.718   9.563  14.044  0.00  0.00    +0.038 C 
BRANCH   8   9
ATOM      9  CG  MET A   1     -38.606   9.611  15.122  0.00  0.00    +0.060 C 
BRANCH   9  10
ATOM     10  SD  MET A   1     -36.968   9.775  14.351  0.00  0.00    -0.139 S 
ATOM     11  CE  MET A   1     -37.013  11.523  13.976  0.00  0.00    +0.069 C 
ENDBRANCH   9  10
ENDBRANCH   8   9
ENDBRANCH   5   8
ENDBRANCH   1   5
BRANCH   2  12
ATOM     12  CA  MET A   2     -40.321   5.142  14.698  0.00  0.00    +0.138 C 
BRANCH  12  13
ATOM     13  C   MET A   2     -39.753   4.132  13.707  0.00  0.00    +0.227 C 
ATOM     14  O   MET A   2     -39.002   3.231  14.108  0.00  0.00    -0.286 OA
ENDBRANCH  12  13
BRANCH  12  15
ATOM     15  CB  MET A   2     -41.651   4.649  15.261  0.00  0.00    +0.039 C 
BRANCH  15  16
ATOM     16  CG  MET A   2     -42.059   5.262  16.630  0.00  0.00    +0.060 C 
BRANCH  16  17
ATOM     17  SD  MET A   2     -40.862   5.076  17.980  0.00  0.00    -0.139 S 
ATOM     18  CE  MET A   2     -40.722   3.286  18.213  0.00  0.00    +0.069 C 
ENDBRANCH  16  17
ENDBRANCH  15  16
ENDBRANCH  12  15
ENDBRANCH   2  12
TORSDOF 10
REMARK  Name = ../refined-set-2016/2p15/2p15_pocket.pdb
REMARK  283 active torsions:
REMARK  status: ('A' for Active; 'I' for Inactive)
REMARK    1  A    between atoms: _1  and  _3
REMARK    2  A    between atoms: _3  and  _4
REMARK    3  A    between atoms: _3  and  _6
REMARK    4  A    between atoms: _6  and  _7
REMARK    5  A    between atoms: _10  and  _12
REMARK    6  A    between atoms: _12  and  _13
REMARK    7  A    between atoms: _12  and  _15
REMARK    8  A    between atoms: _15  and  _16
REMARK    9  A    between atoms: _19  and  _21
REMARK   10  A    between atoms: _21  and  _22
REMARK   11  A    between atoms: _21  and  _24
REMARK   12  A    between atoms: _24  and  _25
REMARK   13  A    between atoms: _31  and  _33
REMARK   14  A    between atoms: _33  and  _34
REMARK   15  A    between atoms: _33  and  _36
REMARK   16  A    between atoms: _36  and  _37
REMARK   17  A    between atoms: _39  and  _41
REMARK   18  A    between atoms: _41  and  _42
REMARK   19  A    between atoms: _41  and  _44
REMARK   20  A    between atoms: _44  and  _45
REMARK   21  A    between atoms: _45  and  _46
REMARK   22  A    between atoms: _49  and  _51
REMARK   23  A    between atoms: _51  and  _52
REMARK   24  A    between atoms: _51  and  _54
REMARK   25  A    between atoms: _54  and  _55
REMARK   26  A    between atoms: _55  and  _56
REMARK   27  A    between atoms: _58  and  _60
REMARK   28  A    between atoms: _60  and  _61
REMARK   29  A    between atoms: _60  and  _63
REMARK   30  A    between atoms: _63  and  _64
REMARK   31  A    between atoms: _64  and  _65
REMARK   32  A    between atoms: _67  and  _69
REMARK   33  A    between atoms: _69  and  _70
REMARK   34  A    between atoms: _69  and  _72
REMARK   35  A    between atoms: _72  and  _73
REMARK   36  A    between atoms: _76  and  _78
REMARK   37  A    between atoms: _78  and  _79
REMARK   38  A    between atoms: _78  and  _81
REMARK   39  A    between atoms: _81  and  _82
REMARK   40  A    between atoms: _85  and  _87
REMARK   41  A    between atoms: _87  and  _88
REMARK   42  A    between atoms: _87  and  _90
REMARK   43  A    between atoms: _90  and  _91
REMARK   44  A    between atoms: _94  and  _96
REMARK   45  A    between atoms: _96  and  _97
REMARK   46  A    between atoms: _96  and  _99
REMARK   47  A    between atoms: _99  and  _100
REMARK   48  A    between atoms: _105  and  _107
REMARK   49  A    between atoms: _107  and  _108
REMARK   50  A    between atoms: _107  and  _110
REMARK   51  A    between atoms: _110  and  _111
REMARK   52  A    between atoms: _114  and  _116
REMARK   53  A    between atoms: _116  and  _117
REMARK   54  A    between atoms: _120  and  _122
REMARK   55  A    between atoms: _122  and  _123
REMARK   56  A    between atoms: _122  and  _125
REMARK   57  A    between atoms: _125  and  _126
REMARK   58  A    between atoms: _129  and  _131
REMARK   59  A    between atoms: _131  and  _132
REMARK   60  A    between atoms: _131  and  _134
REMARK   61  A    between atoms: _134  and  _135
REMARK   62  A    between atoms: _135  and  _136
REMARK   63  A    between atoms: _136  and  _137
REMARK   64  A    between atoms: _146  and  _148
REMARK   65  A    between atoms: _148  and  _149
REMARK   66  A    between atoms: _148  and  _151
REMARK   67  A    between atoms: _151  and  _152
REMARK   68  A    between atoms: _152  and  _153
REMARK   69  A    between atoms: _156  and  _158
REMARK   70  A    between atoms: _158  and  _159
REMARK   71  A    between atoms: _158  and  _161
REMARK   72  A    between atoms: _161  and  _162
REMARK   73  A    between atoms: _165  and  _167
REMARK   74  A    between atoms: _167  and  _168
REMARK   75  A    between atoms: _167  and  _170
REMARK   76  A    between atoms: _170  and  _171
REMARK   77  A    between atoms: _171  and  _172
REMARK   78  A    between atoms: _174  and  _176
REMARK   79  A    between atoms: _176  and  _177
REMARK   80  A    between atoms: _176  and  _179
REMARK   81  A    between atoms: _179  and  _180
REMARK   82  A    between atoms: _190  and  _192
REMARK   83  A    between atoms: _192  and  _193
REMARK   84  A    between atoms: _192  and  _195
REMARK   85  A    between atoms: _195  and  _196
REMARK   86  A    between atoms: _199  and  _201
REMARK   87  A    between atoms: _201  and  _202
REMARK   88  A    between atoms: _201  and  _204
REMARK   89  A    between atoms: _204  and  _205
REMARK   90  A    between atoms: _205  and  _206
REMARK   91  A    between atoms: _209  and  _211
REMARK   92  A    between atoms: _211  and  _212
REMARK   93  A    between atoms: _211  and  _214
REMARK   94  A    between atoms: _214  and  _215
REMARK   95  A    between atoms: _218  and  _220
REMARK   96  A    between atoms: _220  and  _221
REMARK   97  A    between atoms: _220  and  _223
REMARK   98  A    between atoms: _223  and  _224
REMARK   99  A    between atoms: _227  and  _229
REMARK  100  A    between atoms: _229  and  _230
REMARK  101  A    between atoms: _229  and  _232
REMARK  102  A    between atoms: _232  and  _233
REMARK  103  A    between atoms: _233  and  _234
REMARK  104  A    between atoms: _236  and  _238
REMARK  105  A    between atoms: _238  and  _239
REMARK  106  A    between atoms: _238  and  _241
REMARK  107  A    between atoms: _241  and  _242
REMARK  108  A    between atoms: _245  and  _247
REMARK  109  A    between atoms: _247  and  _248
REMARK  110  A    between atoms: _250  and  _252
REMARK  111  A    between atoms: _252  and  _253
REMARK  112  A    between atoms: _252  and  _255
REMARK  113  A    between atoms: _255  and  _256
REMARK  114  A    between atoms: _259  and  _261
REMARK  115  A    between atoms: _261  and  _262
REMARK  116  A    between atoms: _261  and  _264
REMARK  117  A    between atoms: _267  and  _269
REMARK  118  A    between atoms: _269  and  _270
REMARK  119  A    between atoms: _269  and  _272
REMARK  120  A    between atoms: _272  and  _273
REMARK  121  A    between atoms: _273  and  _274
REMARK  122  A    between atoms: _274  and  _275
REMARK  123  A    between atoms: _284  and  _286
REMARK  124  A    between atoms: _286  and  _287
REMARK  125  A    between atoms: _286  and  _289
REMARK  126  A    between atoms: _289  and  _290
REMARK  127  A    between atoms: _293  and  _295
REMARK  128  A    between atoms: _295  and  _296
REMARK  129  A    between atoms: _295  and  _298
REMARK  130  A    between atoms: _298  and  _299
REMARK  131  A    between atoms: _302  and  _304
REMARK  132  A    between atoms: _304  and  _305
REMARK  133  A    between atoms: _304  and  _307
REMARK  134  A    between atoms: _307  and  _308
REMARK  135  A    between atoms: _314  and  _316
REMARK  136  A    between atoms: _316  and  _317
REMARK  137  A    between atoms: _320  and  _322
REMARK  138  A    between atoms: _322  and  _323
REMARK  139  A    between atoms: _322  and  _325
REMARK  140  A    between atoms: _325  and  _326
REMARK  141  A    between atoms: _329  and  _331
REMARK  142  A    between atoms: _331  and  _332
REMARK  143  A    between atoms: _331  and  _334
REMARK  144  A    between atoms: _334  and  _335
REMARK  145  A    between atoms: _338  and  _340
REMARK  146  A    between atoms: _340  and  _341
REMARK  147  A    between atoms: _340  and  _343
REMARK  148  A    between atoms: _343  and  _344
REMARK  149  A    between atoms: _347  and  _349
REMARK  150  A    between atoms: _349  and  _350
REMARK  151  A    between atoms: _349  and  _352
REMARK  152  A    between atoms: _352  and  _353
REMARK  153  A    between atoms: _353  and  _354
REMARK  154  A    between atoms: _359  and  _361
REMARK  155  A    between atoms: _361  and  _362
REMARK  156  A    between atoms: _361  and  _364
REMARK  157  A    between atoms: _364  and  _365
REMARK  158  A    between atoms: _365  and  _366
REMARK  159  A    between atoms: _366  and  _367
REMARK  160  A    between atoms: _367  and  _368
REMARK  161  A    between atoms: _372  and  _374
REMARK  162  A    between atoms: _374  and  _375
REMARK  163  A    between atoms: _374  and  _377
REMARK  164  A    between atoms: _379  and  _381
REMARK  165  A    between atoms: _381  and  _382
REMARK  166  A    between atoms: _381  and  _384
REMARK  167  A    between atoms: _387  and  _389
REMARK  168  A    between atoms: _389  and  _390
REMARK  169  A    between atoms: _389  and  _392
REMARK  170  A    between atoms: _392  and  _393
REMARK  171  A    between atoms: _393  and  _394
REMARK  172  A    between atoms: _397  and  _399
REMARK  173  A    between atoms: _399  and  _400
REMARK  174  A    between atoms: _402  and  _404
REMARK  175  A    between atoms: _404  and  _405
REMARK  176  A    between atoms: _404  and  _407
REMARK  177  A    between atoms: _407  and  _408
REMARK  178  A    between atoms: _408  and  _409
REMARK  179  A    between atoms: _411  and  _413
REMARK  180  A    between atoms: _413  and  _414
REMARK  181  A    between atoms: _413  and  _416
REMARK  182  A    between atoms: _419  and  _421
REMARK  183  A    between atoms: _421  and  _422
REMARK  184  A    between atoms: _421  and  _424
REMARK  185  A    between atoms: _424  and  _425
REMARK  186  A    between atoms: _425  and  _426
REMARK  187  A    between atoms: _429  and  _431
REMARK  188  A    between atoms: _431  and  _432
REMARK  189  A    between atoms: _431  and  _434
REMARK  190  A    between atoms: _434  and  _435
REMARK  191  A    between atoms: _438  and  _440
REMARK  192  A    between atoms: _440  and  _441
REMARK  193  A    between atoms: _440  and  _443
REMARK  194  A    between atoms: _443  and  _444
REMARK  195  A    between atoms: _450  and  _452
REMARK  196  A    between atoms: _452  and  _453
REMARK  197  A    between atoms: _452  and  _455
REMARK  198  A    between atoms: _455  and  _456
REMARK  199  A    between atoms: _459  and  _461
REMARK  200  A    between atoms: _461  and  _462
REMARK  201  A    between atoms: _461  and  _464
REMARK  202  A    between atoms: _464  and  _465
REMARK  203  A    between atoms: _465  and  _466
REMARK  204  A    between atoms: _468  and  _470
REMARK  205  A    between atoms: _470  and  _471
REMARK  206  A    between atoms: _470  and  _473
REMARK  207  A    between atoms: _473  and  _474
REMARK  208  A    between atoms: _477  and  _479
REMARK  209  A    between atoms: _479  and  _480
REMARK  210  A    between atoms: _479  and  _482
REMARK  211  A    between atoms: _482  and  _483
REMARK  212  A    between atoms: _486  and  _488
REMARK  213  A    between atoms: _488  and  _489
REMARK  214  A    between atoms: _488  and  _491
REMARK  215  A    between atoms: _491  and  _492
REMARK  216  A    between atoms: _492  and  _493
REMARK  217  A    between atoms: _495  and  _497
REMARK  218  A    between atoms: _497  and  _498
REMARK  219  A    between atoms: _497  and  _500
REMARK  220  A    between atoms: _500  and  _501
REMARK  221  A    between atoms: _503  and  _505
REMARK  222  A    between atoms: _505  and  _506
REMARK  223  A    between atoms: _505  and  _508
REMARK  224  A    between atoms: _508  and  _509
REMARK  225  A    between atoms: _509  and  _510
REMARK  226  A    between atoms: _510  and  _511
REMARK  227  A    between atoms: _511  and  _512
REMARK  228  A    between atoms: _516  and  _518
REMARK  229  A    between atoms: _518  and  _519
REMARK  230  A    between atoms: _521  and  _523
REMARK  231  A    between atoms: _523  and  _524
REMARK  232  A    between atoms: _523  and  _526
REMARK  233  A    between atoms: _526  and  _527
REMARK  234  A    between atoms: _527  and  _528
REMARK  235  A    between atoms: _530  and  _532
REMARK  236  A    between atoms: _532  and  _533
REMARK  237  A    between atoms: _532  and  _535
REMARK  238  A    between atoms: _535  and  _536
REMARK  239  A    between atoms: _536  and  _537
REMARK  240  A    between atoms: _540  and  _542
REMARK  241  A    between atoms: _542  and  _543
REMARK  242  A    between atoms: _542  and  _545
REMARK  243  A    between atoms: _545  and  _546
REMARK  244  A    between atoms: _551  and  _553
REMARK  245  A    between atoms: _553  and  _554
REMARK  246  A    between atoms: _553  and  _556
REMARK  247  A    between atoms: _556  and  _557
REMARK  248  A    between atoms: _560  and  _562
REMARK  249  A    between atoms: _562  and  _563
REMARK  250  A    between atoms: _562  and  _565
REMARK  251  A    between atoms: _565  and  _566
REMARK  252  A    between atoms: _571  and  _572
REMARK  253  A    between atoms: _574  and  _576
REMARK  254  A    between atoms: _576  and  _577
REMARK  255  A    between atoms: _576  and  _579
REMARK  256  A    between atoms: _579  and  _580
REMARK  257  A    between atoms: _582  and  _584
REMARK  258  A    between atoms: _584  and  _585
REMARK  259  A    between atoms: _584  and  _587
REMARK  260  A    between atoms: _587  and  _588
REMARK  261  A    between atoms: _588  and  _589
REMARK  262  A    between atoms: _591  and  _593
REMARK  263  A    between atoms: _593  and  _594
REMARK  264  A    between atoms: _593  and  _596
REMARK  265  A    between atoms: _596  and  _597
REMARK  266  A    between atoms: _597  and  _598
REMARK  267  A    between atoms: _598  and  _599
REMARK  268  A    between atoms: _599  and  _600
REMARK  269  A    between atoms: _604  and  _606
REMARK  270  A    between atoms: _606  and  _607
REMARK  271  A    between atoms: _606  and  _609
REMARK  272  A    between atoms: _612  and  _614
REMARK  273  A    between atoms: _614  and  _615
REMARK  274  A    between atoms: _614  and  _617
REMARK  275  A    between atoms: _617  and  _618
REMARK  276  A    between atoms: _621  and  _623
REMARK  277  A    between atoms: _623  and  _624
REMARK  278  A    between atoms: _623  and  _626
REMARK  279  A    between atoms: _626  and  _627
REMARK  280  A    between atoms: _630  and  _632
REMARK  281  A    between atoms: _632  and  _633
REMARK  282  A    between atoms: _632  and  _635
REMARK  283  A    between atoms: _635  and  _636
REMARK                            x       y       z     vdW  Elec       q    Type
REMARK                         _______ _______ _______ _____ _____    ______ ____
ROOT
ATOM      1  C   LEU A   5     -31.245   0.258  13.745  0.00  0.00    +0.241 C 
ATOM      2  N   ALA A   6     -32.081   0.212  14.779  0.00  0.00    -0.297 N 
ATOM      3  H   ALA A   6     -32.897   0.856  14.801  0.00  0.00    +0.150 HD
ATOM      4  O   LEU A   5     -30.235  -0.452  13.670  0.00  0.00    -0.273 OA
ENDROOT
BRANCH   2   5
ATOM      5  CA  ALA A   6     -31.878  -0.735  15.901  0.00  0.00    +0.149 C 
ATOM      6  CB  ALA A   6     -33.029  -0.623  16.899  0.00  0.00    +0.031 C 
BRANCH   5   7
ATOM      7  C   ALA A   6     -31.771  -2.175  15.379  0.00  0.00    +0.241 C 
ATOM      8  O   ALA A   6     -30.941  -2.948  15.844  0.00  0.00    -0.273 OA
ATOM      9  N   ASP A   7     -32.594  -2.525  14.395  0.00  0.00    -0.297 N 
ATOM     10  H   ASP A   7     -33.256  -1.825  14.004  0.00  0.00    +0.150 HD
BRANCH   9  11
ATOM     11  CA  ASP A   7     -32.577  -3.883  13.857  0.00  0.00    +0.160 C 
BRANCH  11  12
ATOM     12  C   ASP A   7     -31.243  -4.194  13.144  0.00  0.00    +0.241 C 
ATOM     13  O   ASP A   7     -30.677  -5.291  13.293  0.00  0.00    -0.273 OA
ATOM     14  N   ARG A   8     -30.750  -3.230  12.382  0.00  0.00    -0.297 N 
ATOM     15  H   ARG A   8     -31.265  -2.332  12.282  0.00  0.00    +0.150 HD
BRANCH  14  16
ATOM     16  CA  ARG A   8     -29.479  -3.428  11.680  0.00  0.00    +0.149 C 
BRANCH  16  17
ATOM     17  C   ARG A   8     -28.332  -3.507  12.682  0.00  0.00    +0.241 C 
ATOM     18  N   GLU A   9     -28.391  -2.680  13.723  0.00  0.00    -0.297 N 
ATOM     19  H   GLU A   9     -29.167  -1.991  13.785  0.00  0.00    +0.150 HD
ATOM     20  O   ARG A   8     -27.432  -4.315  12.522  0.00  0.00    -0.273 OA
BRANCH  18  21
ATOM     21  CA  GLU A   9     -27.383  -2.724  14.781  0.00  0.00    +0.149 C 
BRANCH  21  22
ATOM     22  C   GLU A   9     -27.390  -4.032  15.544  0.00  0.00    +0.241 C 
ATOM     23  O   GLU A   9     -26.339  -4.511  15.948  0.00  0.00    -0.273 OA
ATOM     24  N   LEU A  10     -28.566  -4.605  15.775  0.00  0.00    -0.298 N 
ATOM     25  H   LEU A  10     -29.438  -4.158  15.428  0.00  0.00    +0.150 HD
BRANCH  24  26
ATOM     26  CA  LEU A  10     -28.636  -5.863  16.516  0.00  0.00    +0.137 C 
BRANCH  26  27
ATOM     27  C   LEU A  10     -27.807  -6.959  15.843  0.00  0.00    +0.227 C 
ATOM     28  O   LEU A  10     -27.125  -7.739  16.516  0.00  0.00    -0.286 OA
ENDBRANCH  26  27
BRANCH  26  29
ATOM     29  CB  LEU A  10     -30.082  -6.321  16.657  0.00  0.00    +0.028 C 
BRANCH  29  30
ATOM     30  CG  LEU A  10     -30.917  -5.592  17.709  0.00  0.00    +0.002 C 
ATOM     31  CD2 LEU A  10     -30.431  -5.928  19.134  0.00  0.00    +0.000 C 
ATOM     32  CD1 LEU A  10     -32.372  -6.012  17.536  0.00  0.00    +0.000 C 
ENDBRANCH  29  30
ENDBRANCH  26  29
ENDBRANCH  24  26
ENDBRANCH  21  22
BRANCH  21  33
ATOM     33  CB  GLU A   9     -27.595  -1.568  15.761  0.00  0.00    +0.041 C 
BRANCH  33  34
ATOM     34  CG  GLU A   9     -27.205  -0.221  15.169  0.00  0.00    +0.116 C 
BRANCH  34  35
ATOM     35  CD  GLU A   9     -27.280   0.849  16.221  0.00  0.00    +0.365 C 
ATOM     36  OE2 GLU A   9     -26.224   1.104  16.867  0.00  0.00    -0.246 OA
ATOM     37  OE1 GLU A   9     -28.384   1.409  16.439  0.00  0.00    -0.246 OA
ENDBRANCH  34  35
ENDBRANCH  33  34
ENDBRANCH  21  33
ENDBRANCH  18  21
ENDBRANCH  16  17
BRANCH  16  38
ATOM     38  CB  ARG A   8     -29.236  -2.347  10.635  0.00  0.00    +0.033 C 
BRANCH  38  39
ATOM     39  CG  ARG A   8     -30.015  -2.608   9.331  0.00  0.00    +0.045 C 
BRANCH  39  40
ATOM     40  CD  ARG A   8     -29.792  -1.505   8.300  0.00  0.00    +0.174 C 
BRANCH  40  41
ATOM     41  NE  ARG A   8     -30.464  -0.267   8.699  0.00  0.00    -0.265 N 
ATOM     42  HE  ARG A   8     -31.481  -0.312   8.913  0.00  0.00    +0.259 HD
ATOM     43  CZ  ARG A   8     -29.852   0.922   8.806  0.00  0.00    +0.342 C 
ATOM     44  NH2 ARG A   8     -30.552   1.992   9.152  0.00  0.00    -0.292 N 
ATOM     45 HH21 ARG A   8     -31.572   1.908   9.339  0.00  0.00    +0.255 HD
ATOM     46 HH22 ARG A   8     -30.082   2.916   9.236  0.00  0.00    +0.255 HD
ATOM     47  NH1 ARG A   8     -28.532   1.037   8.538  0.00  0.00    -0.292 N 
ATOM     48 HH11 ARG A   8     -28.063   1.961   8.623  0.00  0.00    +0.255 HD
ATOM     49 HH12 ARG A   8     -27.986   0.201   8.247  0.00  0.00    +0.255 HD
ENDBRANCH  40  41
ENDBRANCH  39  40
ENDBRANCH  38  39
ENDBRANCH  16  38
ENDBRANCH  14  16
ENDBRANCH  11  12
BRANCH  11  50
ATOM     50  CB  ASP A   7     -33.756  -4.079  12.899  0.00  0.00    +0.143 C 
BRANCH  50  51
ATOM     51  CG  ASP A   7     -33.634  -5.362  12.067  0.00  0.00    +0.367 C 
ATOM     52  OD2 ASP A   7     -33.903  -6.466  12.594  0.00  0.00    -0.246 OA
ATOM     53  OD1 ASP A   7     -33.283  -5.271  10.869  0.00  0.00    -0.246 OA
ENDBRANCH  50  51
ENDBRANCH  11  50
ENDBRANCH   9  11
ENDBRANCH   5   7
ENDBRANCH   2   5
BRANCH   1  54
ATOM     54  CA  LEU A   5     -31.571   1.277  12.633  0.00  0.00    +0.149 C 
BRANCH  54  56
ATOM     55  C   ASN A   4     -33.409   0.028  11.582  0.00  0.00    +0.241 C 
ATOM     56  N   LEU A   5     -32.969   1.140  12.171  0.00  0.00    -0.297 N 
ATOM     57  H   LEU A   5     -33.627   1.933  12.309  0.00  0.00    +0.150 HD
ATOM     58  O   ASN A   4     -32.669  -0.940  11.326  0.00  0.00    -0.273 OA
BRANCH  55  59
ATOM     59  CA  ASN A   4     -34.915  -0.022  11.222  0.00  0.00    +0.158 C 
BRANCH  59  62
ATOM     60  C   THR A   3     -35.701  -0.058  13.532  0.00  0.00    +0.243 C 
ATOM     61  O   THR A   3     -35.185  -1.168  13.727  0.00  0.00    -0.273 OA
ATOM     62  N   ASN A   4     -35.682   0.541  12.340  0.00  0.00    -0.297 N 
ATOM     63  H   ASN A   4     -36.219   1.421  12.201  0.00  0.00    +0.150 HD
BRANCH  60  64
ATOM     64  CA  THR A   3     -36.421   0.680  14.678  0.00  0.00    +0.176 C 
BRANCH  64  67
ATOM     65  C   LEU A   2     -35.231   2.794  14.876  0.00  0.00    +0.241 C 
ATOM     66  O   LEU A   2     -34.245   2.235  15.329  0.00  0.00    -0.273 OA
ATOM     67  N   THR A   3     -36.337   2.145  14.515  0.00  0.00    -0.295 N 
ATOM     68  H   THR A   3     -37.142   2.671  14.118  0.00  0.00    +0.150 HD
BRANCH  65  69
ATOM     69  CA  LEU A   2     -35.217   4.303  14.742  0.00  0.00    +0.149 C 
BRANCH  69  71
ATOM     70  C   LEU A   1     -35.361   4.502  12.317  0.00  0.00    +0.238 C 
ATOM     71  N   LEU A   2     -35.892   4.737  13.514  0.00  0.00    -0.297 N 
ATOM     72  H   LEU A   2     -36.801   5.237  13.580  0.00  0.00    +0.150 HD
ATOM     73  O   LEU A   1     -34.348   3.832  12.146  0.00  0.00    -0.274 OA
BRANCH  70  74
ATOM     74  CA  LEU A   1     -36.117   5.078  11.113  0.00  0.00    +0.145 C 
BRANCH  74  75
ATOM     75  N   LEU A   1     -37.541   4.847  11.241  0.00  0.00    -0.238 NA
ATOM     76  H   LEU A   1     -38.185   5.661  11.308  0.00  0.00    +0.142 HD
ENDBRANCH  74  75
BRANCH  74  77
ATOM     77  CB  LEU A   1     -35.824   6.577  10.986  0.00  0.00    +0.026 C 
BRANCH  77  78
ATOM     78  CG  LEU A   1     -36.359   7.254   9.736  0.00  0.00    +0.002 C 
ATOM     79  CD2 LEU A   1     -36.183   8.758   9.910  0.00  0.00    +0.000 C 
ATOM     80  CD1 LEU A   1     -35.631   6.751   8.468  0.00  0.00    +0.000 C 
ENDBRANCH  77  78
ENDBRANCH  74  77
ENDBRANCH  70  74
ENDBRANCH  69  71
BRANCH  69  81
ATOM     81  CB  LEU A   2     -35.859   4.939  15.969  0.00  0.00    +0.029 C 
BRANCH  81  82
ATOM     82  CG  LEU A   2     -35.707   6.458  16.089  0.00  0.00    +0.002 C 
ATOM     83  CD2 LEU A   2     -36.196   6.863  17.447  0.00  0.00    +0.000 C 
ATOM     84  CD1 LEU A   2     -34.254   6.823  15.950  0.00  0.00    +0.000 C 
ENDBRANCH  81  82
ENDBRANCH  69  81
ENDBRANCH  65  69
ENDBRANCH  64  67
BRANCH  64  85
ATOM     85  CB  THR A   3     -37.879   0.172  14.838  0.00  0.00    +0.137 C 
ATOM     86  CG2 THR A   3     -38.522   0.712  16.151  0.00  0.00    +0.034 C 
BRANCH  85  87
ATOM     87  OG1 THR A   3     -38.671   0.543  13.691  0.00  0.00    -0.382 OA
ATOM     88  HG1 THR A   3     -38.681   1.529  13.603  0.00  0.00    +0.210 HD
ENDBRANCH  85  87
ENDBRANCH  64  85
ENDBRANCH  60  64
ENDBRANCH  59  62
BRANCH  59  89
ATOM     89  CB  ASN A   4     -35.208   0.758   9.951  0.00  0.00    +0.114 C 
BRANCH  89  90
ATOM     90  CG  ASN A   4     -34.336   0.340   8.767  0.00  0.00    +0.222 C 
ATOM     91  OD1 ASN A   4     -33.112   0.548   8.752  0.00  0.00    -0.275 OA
ATOM     92  ND2 ASN A   4     -34.985  -0.208   7.733  0.00  0.00    -0.329 N 
ATOM     93 HD21 ASN A   4     -36.012  -0.365   7.788  0.00  0.00    +0.145 HD
ATOM     94 HD22 ASN A   4     -34.463  -0.477   6.875  0.00  0.00    +0.145 HD
ENDBRANCH  89  90
ENDBRANCH  59  89
ENDBRANCH  55  59
ENDBRANCH  54  56
BRANCH  54  95
ATOM     95  CB  LEU A   5     -31.317   2.695  13.165  0.00  0.00    +0.029 C 
BRANCH  95  96
ATOM     96  CG  LEU A   5     -29.933   3.089  13.687  0.00  0.00    +0.002 C 
ATOM     97  CD2 LEU A   5     -29.912   4.608  14.177  0.00  0.00    +0.000 C 
ATOM     98  CD1 LEU A   5     -28.906   2.898  12.603  0.00  0.00    +0.000 C 
ENDBRANCH  95  96
ENDBRANCH  54  95
ENDBRANCH   1  54
TORSDOF 41
REMARK  Name = ../refined-set-2016/2p15/2p15_pocket.pdb
REMARK  283 active torsions:
REMARK  status: ('A' for Active; 'I' for Inactive)
REMARK    1  A    between atoms: _1  and  _3
REMARK    2  A    between atoms: _3  and  _4
REMARK    3  A    between atoms: _3  and  _6
REMARK    4  A    between atoms: _6  and  _7
REMARK    5  A    between atoms: _10  and  _12
REMARK    6  A    between atoms: _12  and  _13
REMARK    7  A    between atoms: _12  and  _15
REMARK    8  A    between atoms: _15  and  _16
REMARK    9  A    between atoms: _19  and  _21
REMARK   10  A    between atoms: _21  and  _22
REMARK   11  A    between atoms: _21  and  _24
REMARK   12  A    between atoms: _24  and  _25
REMARK   13  A    between atoms: _31  and  _33
REMARK   14  A    between atoms: _33  and  _34
REMARK   15  A    between atoms: _33  and  _36
REMARK   16  A    between atoms: _36  and  _37
REMARK   17  A    between atoms: _39  and  _41
REMARK   18  A    between atoms: _41  and  _42
REMARK   19  A    between atoms: _41  and  _44
REMARK   20  A    between atoms: _44  and  _45
REMARK   21  A    between atoms: _45  and  _46
REMARK   22  A    between atoms: _49  and  _51
REMARK   23  A    between atoms: _51  and  _52
REMARK   24  A    between atoms: _51  and  _54
REMARK   25  A    between atoms: _54  and  _55
REMARK   26  A    between atoms: _55  and  _56
REMARK   27  A    between atoms: _58  and  _60
REMARK   28  A    between atoms: _60  and  _61
REMARK   29  A    between atoms: _60  and  _63
REMARK   30  A    between atoms: _63  and  _64
REMARK   31  A    between atoms: _64  and  _65
REMARK   32  A    between atoms: _67  and  _69
REMARK   33  A    between atoms: _69  and  _70
REMARK   34  A    between atoms: _69  and  _72
REMARK   35  A    between atoms: _72  and  _73
REMARK   36  A    between atoms: _76  and  _78
REMARK   37  A    between atoms: _78  and  _79
REMARK   38  A    between atoms: _78  and  _81
REMARK   39  A    between atoms: _81  and  _82
REMARK   40  A    between atoms: _85  and  _87
REMARK   41  A    between atoms: _87  and  _88
REMARK   42  A    between atoms: _87  and  _90
REMARK   43  A    between atoms: _90  and  _91
REMARK   44  A    between atoms: _94  and  _96
REMARK   45  A    between atoms: _96  and  _97
REMARK   46  A    between atoms: _96  and  _99
REMARK   47  A    between atoms: _99  and  _100
REMARK   48  A    between atoms: _105  and  _107
REMARK   49  A    between atoms: _107  and  _108
REMARK   50  A    between atoms: _107  and  _110
REMARK   51  A    between atoms: _110  and  _111
REMARK   52  A    between atoms: _114  and  _116
REMARK   53  A    between atoms: _116  and  _117
REMARK   54  A    between atoms: _120  and  _122
REMARK   55  A    between atoms: _122  and  _123
REMARK   56  A    between atoms: _122  and  _125
REMARK   57  A    between atoms: _125  and  _126
REMARK   58  A    between atoms: _129  and  _131
REMARK   59  A    between atoms: _131  and  _132
REMARK   60  A    between atoms: _131  and  _134
REMARK   61  A    between atoms: _134  and  _135
REMARK   62  A    between atoms: _135  and  _136
REMARK   63  A    between atoms: _136  and  _137
REMARK   64  A    between atoms: _146  and  _148
REMARK   65  A    between atoms: _148  and  _149
REMARK   66  A    between atoms: _148  and  _151
REMARK   67  A    between atoms: _151  and  _152
REMARK   68  A    between atoms: _152  and  _153
REMARK   69  A    between atoms: _156  and  _158
REMARK   70  A    between atoms: _158  and  _159
REMARK   71  A    between atoms: _158  and  _161
REMARK   72  A    between atoms: _161  and  _162
REMARK   73  A    between atoms: _165  and  _167
REMARK   74  A    between atoms: _167  and  _168
REMARK   75  A    between atoms: _167  and  _170
REMARK   76  A    between atoms: _170  and  _171
REMARK   77  A    between atoms: _171  and  _172
REMARK   78  A    between atoms: _174  and  _176
REMARK   79  A    between atoms: _176  and  _177
REMARK   80  A    between atoms: _176  and  _179
REMARK   81  A    between atoms: _179  and  _180
REMARK   82  A    between atoms: _190  and  _192
REMARK   83  A    between atoms: _192  and  _193
REMARK   84  A    between atoms: _192  and  _195
REMARK   85  A    between atoms: _195  and  _196
REMARK   86  A    between atoms: _199  and  _201
REMARK   87  A    between atoms: _201  and  _202
REMARK   88  A    between atoms: _201  and  _204
REMARK   89  A    between atoms: _204  and  _205
REMARK   90  A    between atoms: _205  and  _206
REMARK   91  A    between atoms: _209  and  _211
REMARK   92  A    between atoms: _211  and  _212
REMARK   93  A    between atoms: _211  and  _214
REMARK   94  A    between atoms: _214  and  _215
REMARK   95  A    between atoms: _218  and  _220
REMARK   96  A    between atoms: _220  and  _221
REMARK   97  A    between atoms: _220  and  _223
REMARK   98  A    between atoms: _223  and  _224
REMARK   99  A    between atoms: _227  and  _229
REMARK  100  A    between atoms: _229  and  _230
REMARK  101  A    between atoms: _229  and  _232
REMARK  102  A    between atoms: _232  and  _233
REMARK  103  A    between atoms: _233  and  _234
REMARK  104  A    between atoms: _236  and  _238
REMARK  105  A    between atoms: _238  and  _239
REMARK  106  A    between atoms: _238  and  _241
REMARK  107  A    between atoms: _241  and  _242
REMARK  108  A    between atoms: _245  and  _247
REMARK  109  A    between atoms: _247  and  _248
REMARK  110  A    between atoms: _250  and  _252
REMARK  111  A    between atoms: _252  and  _253
REMARK  112  A    between atoms: _252  and  _255
REMARK  113  A    between atoms: _255  and  _256
REMARK  114  A    between atoms: _259  and  _261
REMARK  115  A    between atoms: _261  and  _262
REMARK  116  A    between atoms: _261  and  _264
REMARK  117  A    between atoms: _267  and  _269
REMARK  118  A    between atoms: _269  and  _270
REMARK  119  A    between atoms: _269  and  _272
REMARK  120  A    between atoms: _272  and  _273
REMARK  121  A    between atoms: _273  and  _274
REMARK  122  A    between atoms: _274  and  _275
REMARK  123  A    between atoms: _284  and  _286
REMARK  124  A    between atoms: _286  and  _287
REMARK  125  A    between atoms: _286  and  _289
REMARK  126  A    between atoms: _289  and  _290
REMARK  127  A    between atoms: _293  and  _295
REMARK  128  A    between atoms: _295  and  _296
REMARK  129  A    between atoms: _295  and  _298
REMARK  130  A    between atoms: _298  and  _299
REMARK  131  A    between atoms: _302  and  _304
REMARK  132  A    between atoms: _304  and  _305
REMARK  133  A    between atoms: _304  and  _307
REMARK  134  A    between atoms: _307  and  _308
REMARK  135  A    between atoms: _314  and  _316
REMARK  136  A    between atoms: _316  and  _317
REMARK  137  A    between atoms: _320  and  _322
REMARK  138  A    between atoms: _322  and  _323
REMARK  139  A    between atoms: _322  and  _325
REMARK  140  A    between atoms: _325  and  _326
REMARK  141  A    between atoms: _329  and  _331
REMARK  142  A    between atoms: _331  and  _332
REMARK  143  A    between atoms: _331  and  _334
REMARK  144  A    between atoms: _334  and  _335
REMARK  145  A    between atoms: _338  and  _340
REMARK  146  A    between atoms: _340  and  _341
REMARK  147  A    between atoms: _340  and  _343
REMARK  148  A    between atoms: _343  and  _344
REMARK  149  A    between atoms: _347  and  _349
REMARK  150  A    between atoms: _349  and  _350
REMARK  151  A    between atoms: _349  and  _352
REMARK  152  A    between atoms: _352  and  _353
REMARK  153  A    between atoms: _353  and  _354
REMARK  154  A    between atoms: _359  and  _361
REMARK  155  A    between atoms: _361  and  _362
REMARK  156  A    between atoms: _361  and  _364
REMARK  157  A    between atoms: _364  and  _365
REMARK  158  A    between atoms: _365  and  _366
REMARK  159  A    between atoms: _366  and  _367
REMARK  160  A    between atoms: _367  and  _368
REMARK  161  A    between atoms: _372  and  _374
REMARK  162  A    between atoms: _374  and  _375
REMARK  163  A    between atoms: _374  and  _377
REMARK  164  A    between atoms: _379  and  _381
REMARK  165  A    between atoms: _381  and  _382
REMARK  166  A    between atoms: _381  and  _384
REMARK  167  A    between atoms: _387  and  _389
REMARK  168  A    between atoms: _389  and  _390
REMARK  169  A    between atoms: _389  and  _392
REMARK  170  A    between atoms: _392  and  _393
REMARK  171  A    between atoms: _393  and  _394
REMARK  172  A    between atoms: _397  and  _399
REMARK  173  A    between atoms: _399  and  _400
REMARK  174  A    between atoms: _402  and  _404
REMARK  175  A    between atoms: _404  and  _405
REMARK  176  A    between atoms: _404  and  _407
REMARK  177  A    between atoms: _407  and  _408
REMARK  178  A    between atoms: _408  and  _409
REMARK  179  A    between atoms: _411  and  _413
REMARK  180  A    between atoms: _413  and  _414
REMARK  181  A    between atoms: _413  and  _416
REMARK  182  A    between atoms: _419  and  _421
REMARK  183  A    between atoms: _421  and  _422
REMARK  184  A    between atoms: _421  and  _424
REMARK  185  A    between atoms: _424  and  _425
REMARK  186  A    between atoms: _425  and  _426
REMARK  187  A    between atoms: _429  and  _431
REMARK  188  A    between atoms: _431  and  _432
REMARK  189  A    between atoms: _431  and  _434
REMARK  190  A    between atoms: _434  and  _435
REMARK  191  A    between atoms: _438  and  _440
REMARK  192  A    between atoms: _440  and  _441
REMARK  193  A    between atoms: _440  and  _443
REMARK  194  A    between atoms: _443  and  _444
REMARK  195  A    between atoms: _450  and  _452
REMARK  196  A    between atoms: _452  and  _453
REMARK  197  A    between atoms: _452  and  _455
REMARK  198  A    between atoms: _455  and  _456
REMARK  199  A    between atoms: _459  and  _461
REMARK  200  A    between atoms: _461  and  _462
REMARK  201  A    between atoms: _461  and  _464
REMARK  202  A    between atoms: _464  and  _465
REMARK  203  A    between atoms: _465  and  _466
REMARK  204  A    between atoms: _468  and  _470
REMARK  205  A    between atoms: _470  and  _471
REMARK  206  A    between atoms: _470  and  _473
REMARK  207  A    between atoms: _473  and  _474
REMARK  208  A    between atoms: _477  and  _479
REMARK  209  A    between atoms: _479  and  _480
REMARK  210  A    between atoms: _479  and  _482
REMARK  211  A    between atoms: _482  and  _483
REMARK  212  A    between atoms: _486  and  _488
REMARK  213  A    between atoms: _488  and  _489
REMARK  214  A    between atoms: _488  and  _491
REMARK  215  A    between atoms: _491  and  _492
REMARK  216  A    between atoms: _492  and  _493
REMARK  217  A    between atoms: _495  and  _497
REMARK  218  A    between atoms: _497  and  _498
REMARK  219  A    between atoms: _497  and  _500
REMARK  220  A    between atoms: _500  and  _501
REMARK  221  A    between atoms: _503  and  _505
REMARK  222  A    between atoms: _505  and  _506
REMARK  223  A    between atoms: _505  and  _508
REMARK  224  A    between atoms: _508  and  _509
REMARK  225  A    between atoms: _509  and  _510
REMARK  226  A    between atoms: _510  and  _511
REMARK  227  A    between atoms: _511  and  _512
REMARK  228  A    between atoms: _516  and  _518
REMARK  229  A    between atoms: _518  and  _519
REMARK  230  A    between atoms: _521  and  _523
REMARK  231  A    between atoms: _523  and  _524
REMARK  232  A    between atoms: _523  and  _526
REMARK  233  A    between atoms: _526  and  _527
REMARK  234  A    between atoms: _527  and  _528
REMARK  235  A    between atoms: _530  and  _532
REMARK  236  A    between atoms: _532  and  _533
REMARK  237  A    between atoms: _532  and  _535
REMARK  238  A    between atoms: _535  and  _536
REMARK  239  A    between atoms: _536  and  _537
REMARK  240  A    between atoms: _540  and  _542
REMARK  241  A    between atoms: _542  and  _543
REMARK  242  A    between atoms: _542  and  _545
REMARK  243  A    between atoms: _545  and  _546
REMARK  244  A    between atoms: _551  and  _553
REMARK  245  A    between atoms: _553  and  _554
REMARK  246  A    between atoms: _553  and  _556
REMARK  247  A    between atoms: _556  and  _557
REMARK  248  A    between atoms: _560  and  _562
REMARK  249  A    between atoms: _562  and  _563
REMARK  250  A    between atoms: _562  and  _565
REMARK  251  A    between atoms: _565  and  _566
REMARK  252  A    between atoms: _571  and  _572
REMARK  253  A    between atoms: _574  and  _576
REMARK  254  A    between atoms: _576  and  _577
REMARK  255  A    between atoms: _576  and  _579
REMARK  256  A    between atoms: _579  and  _580
REMARK  257  A    between atoms: _582  and  _584
REMARK  258  A    between atoms: _584  and  _585
REMARK  259  A    between atoms: _584  and  _587
REMARK  260  A    between atoms: _587  and  _588
REMARK  261  A    between atoms: _588  and  _589
REMARK  262  A    between atoms: _591  and  _593
REMARK  263  A    between atoms: _593  and  _594
REMARK  264  A    between atoms: _593  and  _596
REMARK  265  A    between atoms: _596  and  _597
REMARK  266  A    between atoms: _597  and  _598
REMARK  267  A    between atoms: _598  and  _599
REMARK  268  A    between atoms: _599  and  _600
REMARK  269  A    between atoms: _604  and  _606
REMARK  270  A    between atoms: _606  and  _607
REMARK  271  A    between atoms: _606  and  _609
REMARK  272  A    between atoms: _612  and  _614
REMARK  273  A    between atoms: _614  and  _615
REMARK  274  A    between atoms: _614  and  _617
REMARK  275  A    between atoms: _617  and  _618
REMARK  276  A    between atoms: _621  and  _623
REMARK  277  A    between atoms: _623  and  _624
REMARK  278  A    between atoms: _623  and  _626
REMARK  279  A    between atoms: _626  and  _627
REMARK  280  A    between atoms: _630  and  _632
REMARK  281  A    between atoms: _632  and  _633
REMARK  282  A    between atoms: _632  and  _635
REMARK  283  A    between atoms: _635  and  _636
REMARK                            x       y       z     vdW  Elec       q    Type
REMARK                         _______ _______ _______ _____ _____    ______ ____
ROOT
ATOM      1  CA  MET A   1     -24.213  -6.549  18.237  0.00  0.00    +0.134 C 
ENDROOT
BRANCH   1   2
ATOM      2  N   MET A   1     -24.374  -6.315  16.810  0.00  0.00    -0.239 NA
ATOM      3  H   MET A   1     -25.282  -5.950  16.457  0.00  0.00    +0.142 HD
ENDBRANCH   1   2
BRANCH   1   4
ATOM      4  C   MET A   1     -23.948  -8.055  18.499  0.00  0.00    +0.224 C 
ATOM      5  O   MET A   1     -23.171  -8.408  19.382  0.00  0.00    -0.287 OA
ENDBRANCH   1   4
BRANCH   1   6
ATOM      6  CB  MET A   1     -25.481  -6.181  18.983  0.00  0.00    +0.037 C 
BRANCH   6   7
ATOM      7  CG  MET A   1     -25.361  -6.265  20.531  0.00  0.00    +0.059 C 
BRANCH   7   8
ATOM      8  SD  MET A   1     -26.901  -5.918  21.401  0.00  0.00    -0.139 S 
ATOM      9  CE  MET A   1     -27.311  -4.271  20.784  0.00  0.00    +0.069 C 
ENDBRANCH   7   8
ENDBRANCH   6   7
ENDBRANCH   1   6
TORSDOF 5
REMARK  Name = ../refined-set-2016/2p15/2p15_pocket.pdb
REMARK  283 active torsions:
REMARK  status: ('A' for Active; 'I' for Inactive)
REMARK    1  A    between atoms: _1  and  _3
REMARK    2  A    between atoms: _3  and  _4
REMARK    3  A    between atoms: _3  and  _6
REMARK    4  A    between atoms: _6  and  _7
REMARK    5  A    between atoms: _10  and  _12
REMARK    6  A    between atoms: _12  and  _13
REMARK    7  A    between atoms: _12  and  _15
REMARK    8  A    between atoms: _15  and  _16
REMARK    9  A    between atoms: _19  and  _21
REMARK   10  A    between atoms: _21  and  _22
REMARK   11  A    between atoms: _21  and  _24
REMARK   12  A    between atoms: _24  and  _25
REMARK   13  A    between atoms: _31  and  _33
REMARK   14  A    between atoms: _33  and  _34
REMARK   15  A    between atoms: _33  and  _36
REMARK   16  A    between atoms: _36  and  _37
REMARK   17  A    between atoms: _39  and  _41
REMARK   18  A    between atoms: _41  and  _42
REMARK   19  A    between atoms: _41  and  _44
REMARK   20  A    between atoms: _44  and  _45
REMARK   21  A    between atoms: _45  and  _46
REMARK   22  A    between atoms: _49  and  _51
REMARK   23  A    between atoms: _51  and  _52
REMARK   24  A    between atoms: _51  and  _54
REMARK   25  A    between atoms: _54  and  _55
REMARK   26  A    between atoms: _55  and  _56
REMARK   27  A    between atoms: _58  and  _60
REMARK   28  A    between atoms: _60  and  _61
REMARK   29  A    between atoms: _60  and  _63
REMARK   30  A    between atoms: _63  and  _64
REMARK   31  A    between atoms: _64  and  _65
REMARK   32  A    between atoms: _67  and  _69
REMARK   33  A    between atoms: _69  and  _70
REMARK   34  A    between atoms: _69  and  _72
REMARK   35  A    between atoms: _72  and  _73
REMARK   36  A    between atoms: _76  and  _78
REMARK   37  A    between atoms: _78  and  _79
REMARK   38  A    between atoms: _78  and  _81
REMARK   39  A    between atoms: _81  and  _82
REMARK   40  A    between atoms: _85  and  _87
REMARK   41  A    between atoms: _87  and  _88
REMARK   42  A    between atoms: _87  and  _90
REMARK   43  A    between atoms: _90  and  _91
REMARK   44  A    between atoms: _94  and  _96
REMARK   45  A    between atoms: _96  and  _97
REMARK   46  A    between atoms: _96  and  _99
REMARK   47  A    between atoms: _99  and  _100
REMARK   48  A    between atoms: _105  and  _107
REMARK   49  A    between atoms: _107  and  _108
REMARK   50  A    between atoms: _107  and  _110
REMARK   51  A    between atoms: _110  and  _111
REMARK   52  A    between atoms: _114  and  _116
REMARK   53  A    between atoms: _116  and  _117
REMARK   54  A    between atoms: _120  and  _122
REMARK   55  A    between atoms: _122  and  _123
REMARK   56  A    between atoms: _122  and  _125
REMARK   57  A    between atoms: _125  and  _126
REMARK   58  A    between atoms: _129  and  _131
REMARK   59  A    between atoms: _131  and  _132
REMARK   60  A    between atoms: _131  and  _134
REMARK   61  A    between atoms: _134  and  _135
REMARK   62  A    between atoms: _135  and  _136
REMARK   63  A    between atoms: _136  and  _137
REMARK   64  A    between atoms: _146  and  _148
REMARK   65  A    between atoms: _148  and  _149
REMARK   66  A    between atoms: _148  and  _151
REMARK   67  A    between atoms: _151  and  _152
REMARK   68  A    between atoms: _152  and  _153
REMARK   69  A    between atoms: _156  and  _158
REMARK   70  A    between atoms: _158  and  _159
REMARK   71  A    between atoms: _158  and  _161
REMARK   72  A    between atoms: _161  and  _162
REMARK   73  A    between atoms: _165  and  _167
REMARK   74  A    between atoms: _167  and  _168
REMARK   75  A    between atoms: _167  and  _170
REMARK   76  A    between atoms: _170  and  _171
REMARK   77  A    between atoms: _171  and  _172
REMARK   78  A    between atoms: _174  and  _176
REMARK   79  A    between atoms: _176  and  _177
REMARK   80  A    between atoms: _176  and  _179
REMARK   81  A    between atoms: _179  and  _180
REMARK   82  A    between atoms: _190  and  _192
REMARK   83  A    between atoms: _192  and  _193
REMARK   84  A    between atoms: _192  and  _195
REMARK   85  A    between atoms: _195  and  _196
REMARK   86  A    between atoms: _199  and  _201
REMARK   87  A    between atoms: _201  and  _202
REMARK   88  A    between atoms: _201  and  _204
REMARK   89  A    between atoms: _204  and  _205
REMARK   90  A    between atoms: _205  and  _206
REMARK   91  A    between atoms: _209  and  _211
REMARK   92  A    between atoms: _211  and  _212
REMARK   93  A    between atoms: _211  and  _214
REMARK   94  A    between atoms: _214  and  _215
REMARK   95  A    between atoms: _218  and  _220
REMARK   96  A    between atoms: _220  and  _221
REMARK   97  A    between atoms: _220  and  _223
REMARK   98  A    between atoms: _223  and  _224
REMARK   99  A    between atoms: _227  and  _229
REMARK  100  A    between atoms: _229  and  _230
REMARK  101  A    between atoms: _229  and  _232
REMARK  102  A    between atoms: _232  and  _233
REMARK  103  A    between atoms: _233  and  _234
REMARK  104  A    between atoms: _236  and  _238
REMARK  105  A    between atoms: _238  and  _239
REMARK  106  A    between atoms: _238  and  _241
REMARK  107  A    between atoms: _241  and  _242
REMARK  108  A    between atoms: _245  and  _247
REMARK  109  A    between atoms: _247  and  _248
REMARK  110  A    between atoms: _250  and  _252
REMARK  111  A    between atoms: _252  and  _253
REMARK  112  A    between atoms: _252  and  _255
REMARK  113  A    between atoms: _255  and  _256
REMARK  114  A    between atoms: _259  and  _261
REMARK  115  A    between atoms: _261  and  _262
REMARK  116  A    between atoms: _261  and  _264
REMARK  117  A    between atoms: _267  and  _269
REMARK  118  A    between atoms: _269  and  _270
REMARK  119  A    between atoms: _269  and  _272
REMARK  120  A    between atoms: _272  and  _273
REMARK  121  A    between atoms: _273  and  _274
REMARK  122  A    between atoms: _274  and  _275
REMARK  123  A    between atoms: _284  and  _286
REMARK  124  A    between atoms: _286  and  _287
REMARK  125  A    between atoms: _286  and  _289
REMARK  126  A    between atoms: _289  and  _290
REMARK  127  A    between atoms: _293  and  _295
REMARK  128  A    between atoms: _295  and  _296
REMARK  129  A    between atoms: _295  and  _298
REMARK  130  A    between atoms: _298  and  _299
REMARK  131  A    between atoms: _302  and  _304
REMARK  132  A    between atoms: _304  and  _305
REMARK  133  A    between atoms: _304  and  _307
REMARK  134  A    between atoms: _307  and  _308
REMARK  135  A    between atoms: _314  and  _316
REMARK  136  A    between atoms: _316  and  _317
REMARK  137  A    between atoms: _320  and  _322
REMARK  138  A    between atoms: _322  and  _323
REMARK  139  A    between atoms: _322  and  _325
REMARK  140  A    between atoms: _325  and  _326
REMARK  141  A    between atoms: _329  and  _331
REMARK  142  A    between atoms: _331  and  _332
REMARK  143  A    between atoms: _331  and  _334
REMARK  144  A    between atoms: _334  and  _335
REMARK  145  A    between atoms: _338  and  _340
REMARK  146  A    between atoms: _340  and  _341
REMARK  147  A    between atoms: _340  and  _343
REMARK  148  A    between atoms: _343  and  _344
REMARK  149  A    between atoms: _347  and  _349
REMARK  150  A    between atoms: _349  and  _350
REMARK  151  A    between atoms: _349  and  _352
REMARK  152  A    between atoms: _352  and  _353
REMARK  153  A    between atoms: _353  and  _354
REMARK  154  A    between atoms: _359  and  _361
REMARK  155  A    between atoms: _361  and  _362
REMARK  156  A    between atoms: _361  and  _364
REMARK  157  A    between atoms: _364  and  _365
REMARK  158  A    between atoms: _365  and  _366
REMARK  159  A    between atoms: _366  and  _367
REMARK  160  A    between atoms: _367  and  _368
REMARK  161  A    between atoms: _372  and  _374
REMARK  162  A    between atoms: _374  and  _375
REMARK  163  A    between atoms: _374  and  _377
REMARK  164  A    between atoms: _379  and  _381
REMARK  165  A    between atoms: _381  and  _382
REMARK  166  A    between atoms: _381  and  _384
REMARK  167  A    between atoms: _387  and  _389
REMARK  168  A    between atoms: _389  and  _390
REMARK  169  A    between atoms: _389  and  _392
REMARK  170  A    between atoms: _392  and  _393
REMARK  171  A    between atoms: _393  and  _394
REMARK  172  A    between atoms: _397  and  _399
REMARK  173  A    between atoms: _399  and  _400
REMARK  174  A    between atoms: _402  and  _404
REMARK  175  A    between atoms: _404  and  _405
REMARK  176  A    between atoms: _404  and  _407
REMARK  177  A    between atoms: _407  and  _408
REMARK  178  A    between atoms: _408  and  _409
REMARK  179  A    between atoms: _411  and  _413
REMARK  180  A    between atoms: _413  and  _414
REMARK  181  A    between atoms: _413  and  _416
REMARK  182  A    between atoms: _419  and  _421
REMARK  183  A    between atoms: _421  and  _422
REMARK  184  A    between atoms: _421  and  _424
REMARK  185  A    between atoms: _424  and  _425
REMARK  186  A    between atoms: _425  and  _426
REMARK  187  A    between atoms: _429  and  _431
REMARK  188  A    between atoms: _431  and  _432
REMARK  189  A    between atoms: _431  and  _434
REMARK  190  A    between atoms: _434  and  _435
REMARK  191  A    between atoms: _438  and  _440
REMARK  192  A    between atoms: _440  and  _441
REMARK  193  A    between atoms: _440  and  _443
REMARK  194  A    between atoms: _443  and  _444
REMARK  195  A    between atoms: _450  and  _452
REMARK  196  A    between atoms: _452  and  _453
REMARK  197  A    between atoms: _452  and  _455
REMARK  198  A    between atoms: _455  and  _456
REMARK  199  A    between atoms: _459  and  _461
REMARK  200  A    between atoms: _461  and  _462
REMARK  201  A    between atoms: _461  and  _464
REMARK  202  A    between atoms: _464  and  _465
REMARK  203  A    between atoms: _465  and  _466
REMARK  204  A    between atoms: _468  and  _470
REMARK  205  A    between atoms: _470  and  _471
REMARK  206  A    between atoms: _470  and  _473
REMARK  207  A    between atoms: _473  and  _474
REMARK  208  A    between atoms: _477  and  _479
REMARK  209  A    between atoms: _479  and  _480
REMARK  210  A    between atoms: _479  and  _482
REMARK  211  A    between atoms: _482  and  _483
REMARK  212  A    between atoms: _486  and  _488
REMARK  213  A    between atoms: _488  and  _489
REMARK  214  A    between atoms: _488  and  _491
REMARK  215  A    between atoms: _491  and  _492
REMARK  216  A    between atoms: _492  and  _493
REMARK  217  A    between atoms: _495  and  _497
REMARK  218  A    between atoms: _497  and  _498
REMARK  219  A    between atoms: _497  and  _500
REMARK  220  A    between atoms: _500  and  _501
REMARK  221  A    between atoms: _503  and  _505
REMARK  222  A    between atoms: _505  and  _506
REMARK  223  A    between atoms: _505  and  _508
REMARK  224  A    between atoms: _508  and  _509
REMARK  225  A    between atoms: _509  and  _510
REMARK  226  A    between atoms: _510  and  _511
REMARK  227  A    between atoms: _511  and  _512
REMARK  228  A    between atoms: _516  and  _518
REMARK  229  A    between atoms: _518  and  _519
REMARK  230  A    between atoms: _521  and  _523
REMARK  231  A    between atoms: _523  and  _524
REMARK  232  A    between atoms: _523  and  _526
REMARK  233  A    between atoms: _526  and  _527
REMARK  234  A    between atoms: _527  and  _528
REMARK  235  A    between atoms: _530  and  _532
REMARK  236  A    between atoms: _532  and  _533
REMARK  237  A    between atoms: _532  and  _535
REMARK  238  A    between atoms: _535  and  _536
REMARK  239  A    between atoms: _536  and  _537
REMARK  240  A    between atoms: _540  and  _542
REMARK  241  A    between atoms: _542  and  _543
REMARK  242  A    between atoms: _542  and  _545
REMARK  243  A    between atoms: _545  and  _546
REMARK  244  A    between atoms: _551  and  _553
REMARK  245  A    between atoms: _553  and  _554
REMARK  246  A    between atoms: _553  and  _556
REMARK  247  A    between atoms: _556  and  _557
REMARK  248  A    between atoms: _560  and  _562
REMARK  249  A    between atoms: _562  and  _563
REMARK  250  A    between atoms: _562  and  _565
REMARK  251  A    between atoms: _565  and  _566
REMARK  252  A    between atoms: _571  and  _572
REMARK  253  A    between atoms: _574  and  _576
REMARK  254  A    between atoms: _576  and  _577
REMARK  255  A    between atoms: _576  and  _579
REMARK  256  A    between atoms: _579  and  _580
REMARK  257  A    between atoms: _582  and  _584
REMARK  258  A    between atoms: _584  and  _585
REMARK  259  A    between atoms: _584  and  _587
REMARK  260  A    between atoms: _587  and  _588
REMARK  261  A    between atoms: _588  and  _589
REMARK  262  A    between atoms: _591  and  _593
REMARK  263  A    between atoms: _593  and  _594
REMARK  264  A    between atoms: _593  and  _596
REMARK  265  A    between atoms: _596  and  _597
REMARK  266  A    between atoms: _597  and  _598
REMARK  267  A    between atoms: _598  and  _599
REMARK  268  A    between atoms: _599  and  _600
REMARK  269  A    between atoms: _604  and  _606
REMARK  270  A    between atoms: _606  and  _607
REMARK  271  A    between atoms: _606  and  _609
REMARK  272  A    between atoms: _612  and  _614
REMARK  273  A    between atoms: _614  and  _615
REMARK  274  A    between atoms: _614  and  _617
REMARK  275  A    between atoms: _617  and  _618
REMARK  276  A    between atoms: _621  and  _623
REMARK  277  A    between atoms: _623  and  _624
REMARK  278  A    between atoms: _623  and  _626
REMARK  279  A    between atoms: _626  and  _627
REMARK  280  A    between atoms: _630  and  _632
REMARK  281  A    between atoms: _632  and  _633
REMARK  282  A    between atoms: _632  and  _635
REMARK  283  A    between atoms: _635  and  _636
REMARK                            x       y       z     vdW  Elec       q    Type
REMARK                         _______ _______ _______ _____ _____    ______ ____
ROOT
ATOM      1  CA  LEU A   5     -27.959   0.078  22.207  0.00  0.00    +0.149 C 
ENDROOT
BRANCH   1   2
ATOM      2  C   LEU A   5     -27.880   1.455  22.861  0.00  0.00    +0.241 C 
ATOM      3  N   MET A   6     -28.461   1.608  24.057  0.00  0.00    -0.297 N 
ATOM      4  H   MET A   6     -28.915   0.795  24.521  0.00  0.00    +0.150 HD
ATOM      5  O   LEU A   5     -27.325   2.383  22.273  0.00  0.00    -0.273 OA
BRANCH   3   6
ATOM      6  CA  MET A   6     -28.459   2.925  24.718  0.00  0.00    +0.149 C 
BRANCH   6   7
ATOM      7  C   MET A   6     -27.101   3.428  25.118  0.00  0.00    +0.241 C 
ATOM      8  N   ILE A   7     -26.245   2.559  25.659  0.00  0.00    -0.297 N 
ATOM      9  H   ILE A   7     -26.513   1.561  25.779  0.00  0.00    +0.150 HD
ATOM     10  O   MET A   6     -26.829   4.624  24.964  0.00  0.00    -0.273 OA
BRANCH   8  11
ATOM     11  CA  ILE A   7     -24.911   3.032  26.086  0.00  0.00    +0.149 C 
BRANCH  11  12
ATOM     12  C   ILE A   7     -24.111   3.459  24.817  0.00  0.00    +0.241 C 
ATOM     13  O   ILE A   7     -23.377   4.424  24.853  0.00  0.00    -0.273 OA
ATOM     14  N   GLY A   8     -24.286   2.750  23.701  0.00  0.00    -0.295 N 
ATOM     15  H   GLY A   8     -24.889   1.903  23.731  0.00  0.00    +0.150 HD
BRANCH  14  16
ATOM     16  CA  GLY A   8     -23.657   3.126  22.437  0.00  0.00    +0.176 C 
BRANCH  16  17
ATOM     17  C   GLY A   8     -24.191   4.500  22.002  0.00  0.00    +0.243 C 
ATOM     18  N   LEU A   9     -25.503   4.702  22.059  0.00  0.00    -0.297 N 
ATOM     19  H   LEU A   9     -26.122   3.925  22.368  0.00  0.00    +0.150 HD
ATOM     20  O   GLY A   8     -23.413   5.386  21.668  0.00  0.00    -0.273 OA
BRANCH  18  21
ATOM     21  CA  LEU A   9     -26.102   5.995  21.697  0.00  0.00    +0.149 C 
BRANCH  21  22
ATOM     22  C   LEU A   9     -25.561   7.166  22.556  0.00  0.00    +0.241 C 
ATOM     23  N   VAL A  10     -25.564   6.988  23.868  0.00  0.00    -0.298 N 
ATOM     24  H   VAL A  10     -25.934   6.093  24.246  0.00  0.00    +0.150 HD
ATOM     25  O   LEU A   9     -25.186   8.214  22.035  0.00  0.00    -0.273 OA
BRANCH  23  26
ATOM     26  CA  VAL A  10     -25.065   8.004  24.823  0.00  0.00    +0.137 C 
BRANCH  26  27
ATOM     27  CB  VAL A  10     -25.296   7.462  26.261  0.00  0.00    +0.026 C 
ATOM     28  CG2 VAL A  10     -24.441   8.174  27.272  0.00  0.00    +0.002 C 
ATOM     29  CG1 VAL A  10     -26.762   7.535  26.638  0.00  0.00    +0.002 C 
ENDBRANCH  26  27
BRANCH  26  30
ATOM     30  C   VAL A  10     -23.568   8.310  24.546  0.00  0.00    +0.227 C 
ATOM     31  O   VAL A  10     -23.116   9.487  24.555  0.00  0.00    -0.286 OA
ENDBRANCH  26  30
ENDBRANCH  23  26
ENDBRANCH  21  22
BRANCH  21  32
ATOM     32  CB  LEU A   9     -27.628   5.926  21.851  0.00  0.00    +0.029 C 
BRANCH  32  33
ATOM     33  CG  LEU A   9     -28.369   7.263  21.687  0.00  0.00    +0.002 C 
ATOM     34  CD2 LEU A   9     -29.866   7.102  22.022  0.00  0.00    +0.000 C 
ATOM     35  CD1 LEU A   9     -28.191   7.833  20.270  0.00  0.00    +0.000 C 
ENDBRANCH  32  33
ENDBRANCH  21  32
ENDBRANCH  18  21
ENDBRANCH  16  17
ENDBRANCH  14  16
ENDBRANCH  11  12
BRANCH  11  36
ATOM     36  CB  ILE A   7     -24.166   2.029  27.008  0.00  0.00    +0.027 C 
ATOM     37  CG2 ILE A   7     -23.650   0.795  26.198  0.00  0.00    +0.002 C 
BRANCH  36  38
ATOM     38  CG1 ILE A   7     -23.011   2.755  27.753  0.00  0.00    +0.002 C 
ATOM     39  CD1 ILE A   7     -22.216   1.910  28.756  0.00  0.00    +0.000 C 
ENDBRANCH  36  38
ENDBRANCH  11  36
ENDBRANCH   8  11
ENDBRANCH   6   7
BRANCH   6  40
ATOM     40  CB  MET A   6     -29.393   2.940  25.934  0.00  0.00    +0.041 C 
BRANCH  40  41
ATOM     41  CG  MET A   6     -30.850   2.861  25.535  0.00  0.00    +0.060 C 
BRANCH  41  42
ATOM     42  SD  MET A   6     -31.968   2.702  26.965  0.00  0.00    -0.139 S 
ATOM     43  CE  MET A   6     -33.506   3.233  26.219  0.00  0.00    +0.069 C 
ENDBRANCH  41  42
ENDBRANCH  40  41
ENDBRANCH   6  40
ENDBRANCH   3   6
ENDBRANCH   1   2
BRANCH   1  46
ATOM     44  C   ILE A   4     -26.447  -0.966  23.805  0.00  0.00    +0.241 C 
ATOM     45  O   ILE A   4     -25.535  -0.191  23.513  0.00  0.00    -0.273 OA
ATOM     46  N   LEU A   5     -27.622  -1.000  23.168  0.00  0.00    -0.297 N 
ATOM     47  H   LEU A   5     -28.293  -1.775  23.345  0.00  0.00    +0.150 HD
BRANCH  44  48
ATOM     48  CA  ILE A   4     -26.251  -1.974  24.923  0.00  0.00    +0.149 C 
BRANCH  48  51
ATOM     49  C   GLU A   3     -27.793  -1.014  26.579  0.00  0.00    +0.241 C 
ATOM     50  O   GLU A   3     -27.140   0.036  26.692  0.00  0.00    -0.273 OA
ATOM     51  N   ILE A   4     -27.447  -2.015  25.780  0.00  0.00    -0.297 N 
ATOM     52  H   ILE A   4     -28.046  -2.865  25.758  0.00  0.00    +0.150 HD
BRANCH  49  53
ATOM     53  CA  GLU A   3     -29.040  -1.262  27.431  0.00  0.00    +0.149 C 
BRANCH  53  55
ATOM     54  C   LEU A   2     -30.574  -1.409  25.522  0.00  0.00    +0.241 C 
ATOM     55  N   GLU A   3     -30.074  -1.956  26.631  0.00  0.00    -0.297 N 
ATOM     56  H   GLU A   3     -30.417  -2.888  26.940  0.00  0.00    +0.150 HD
ATOM     57  O   LEU A   2     -30.276  -0.278  25.164  0.00  0.00    -0.273 OA
BRANCH  54  58
ATOM     58  CA  LEU A   2     -31.530  -2.281  24.669  0.00  0.00    +0.149 C 
BRANCH  58  60
ATOM     59  C   TRP A   1     -30.067  -4.099  24.018  0.00  0.00    +0.239 C 
ATOM     60  N   LEU A   2     -31.138  -3.699  24.701  0.00  0.00    -0.297 N 
ATOM     61  H   LEU A   2     -31.693  -4.384  25.253  0.00  0.00    +0.150 HD
ATOM     62  O   TRP A   1     -29.361  -3.321  23.367  0.00  0.00    -0.274 OA
BRANCH  59  63
ATOM     63  CA  TRP A   1     -29.745  -5.607  24.033  0.00  0.00    +0.149 C 
BRANCH  63  64
ATOM     64  N   TRP A   1     -29.947  -6.203  25.350  0.00  0.00    -0.238 NA
ATOM     65  H   TRP A   1     -30.657  -6.949  25.490  0.00  0.00    +0.142 HD
ENDBRANCH  63  64
BRANCH  63  66
ATOM     66  CB  TRP A   1     -30.563  -6.317  22.946  0.00  0.00    +0.054 C 
BRANCH  66  67
ATOM     67  CG  TRP A   1     -32.024  -6.217  23.129  0.00  0.00    -0.002 A 
ATOM     68  CD1 TRP A   1     -32.816  -7.025  23.899  0.00  0.00    +0.068 A 
ATOM     69  NE1 TRP A   1     -34.113  -6.627  23.810  0.00  0.00    -0.352 N 
ATOM     70  HE1 TRP A   1     -34.916  -7.083  24.289  0.00  0.00    +0.166 HD
ATOM     71  CE2 TRP A   1     -34.198  -5.532  22.992  0.00  0.00    +0.056 A 
ATOM     72  CZ2 TRP A   1     -35.304  -4.791  22.599  0.00  0.00    +0.017 A 
ATOM     73  CH2 TRP A   1     -35.085  -3.719  21.757  0.00  0.00    +0.001 A 
ATOM     74  CZ3 TRP A   1     -33.805  -3.412  21.284  0.00  0.00    +0.000 A 
ATOM     75  CE3 TRP A   1     -32.701  -4.157  21.674  0.00  0.00    +0.001 A 
ATOM     76  CD2 TRP A   1     -32.896  -5.238  22.549  0.00  0.00    +0.013 A 
ENDBRANCH  66  67
ENDBRANCH  63  66
ENDBRANCH  59  63
ENDBRANCH  58  60
BRANCH  58  77
ATOM     77  CB  LEU A   2     -32.989  -2.094  25.104  0.00  0.00    +0.029 C 
BRANCH  77  78
ATOM     78  CG  LEU A   2     -33.536  -0.624  24.930  0.00  0.00    +0.002 C 
ATOM     79  CD2 LEU A   2     -35.002  -0.603  25.257  0.00  0.00    +0.000 C 
ATOM     80  CD1 LEU A   2     -33.315  -0.064  23.514  0.00  0.00    +0.000 C 
ENDBRANCH  77  78
ENDBRANCH  58  77
ENDBRANCH  54  58
ENDBRANCH  53  55
BRANCH  53  81
ATOM     81  CB  GLU A   3     -28.636  -2.084  28.658  0.00  0.00    +0.041 C 
BRANCH  81  82
ATOM     82  CG  GLU A   3     -29.725  -2.269  29.723  0.00  0.00    +0.116 C 
BRANCH  82  83
ATOM     83  CD  GLU A   3     -29.170  -2.975  30.943  0.00  0.00    +0.365 C 
ATOM     84  OE2 GLU A   3     -28.527  -2.311  31.766  0.00  0.00    -0.246 OA
ATOM     85  OE1 GLU A   3     -29.353  -4.211  31.061  0.00  0.00    -0.246 OA
ENDBRANCH  82  83
ENDBRANCH  81  82
ENDBRANCH  53  81
ENDBRANCH  49  53
ENDBRANCH  48  51
BRANCH  48  86
ATOM     86  CB  ILE A   4     -25.884  -3.366  24.366  0.00  0.00    +0.027 C 
ATOM     87  CG2 ILE A   4     -24.762  -3.260  23.290  0.00  0.00    +0.002 C 
BRANCH  86  88
ATOM     88  CG1 ILE A   4     -25.414  -4.272  25.539  0.00  0.00    +0.002 C 
ATOM     89  CD1 ILE A   4     -25.343  -5.763  25.175  0.00  0.00    +0.000 C 
ENDBRANCH  86  88
ENDBRANCH  48  86
ENDBRANCH  44  48
ENDBRANCH   1  46
BRANCH   1  90
ATOM     90  CB  LEU A   5     -29.360  -0.111  21.532  0.00  0.00    +0.029 C 
BRANCH  90  91
ATOM     91  CG  LEU A   5     -29.512  -1.320  20.586  0.00  0.00    +0.002 C 
ATOM     92  CD2 LEU A   5     -30.911  -1.223  19.917  0.00  0.00    +0.000 C 
ATOM     93  CD1 LEU A   5     -28.463  -1.276  19.500  0.00  0.00    +0.000 C 
ENDBRANCH  90  91
ENDBRANCH   1  90
TORSDOF 39
REMARK  Name = ../refined-set-2016/2p15/2p15_pocket.pdb
REMARK  283 active torsions:
REMARK  status: ('A' for Active; 'I' for Inactive)
REMARK    1  A    between atoms: _1  and  _3
REMARK    2  A    between atoms: _3  and  _4
REMARK    3  A    between atoms: _3  and  _6
REMARK    4  A    between atoms: _6  and  _7
REMARK    5  A    between atoms: _10  and  _12
REMARK    6  A    between atoms: _12  and  _13
REMARK    7  A    between atoms: _12  and  _15
REMARK    8  A    between atoms: _15  and  _16
REMARK    9  A    between atoms: _19  and  _21
REMARK   10  A    between atoms: _21  and  _22
REMARK   11  A    between atoms: _21  and  _24
REMARK   12  A    between atoms: _24  and  _25
REMARK   13  A    between atoms: _31  and  _33
REMARK   14  A    between atoms: _33  and  _34
REMARK   15  A    between atoms: _33  and  _36
REMARK   16  A    between atoms: _36  and  _37
REMARK   17  A    between atoms: _39  and  _41
REMARK   18  A    between atoms: _41  and  _42
REMARK   19  A    between atoms: _41  and  _44
REMARK   20  A    between atoms: _44  and  _45
REMARK   21  A    between atoms: _45  and  _46
REMARK   22  A    between atoms: _49  and  _51
REMARK   23  A    between atoms: _51  and  _52
REMARK   24  A    between atoms: _51  and  _54
REMARK   25  A    between atoms: _54  and  _55
REMARK   26  A    between atoms: _55  and  _56
REMARK   27  A    between atoms: _58  and  _60
REMARK   28  A    between atoms: _60  and  _61
REMARK   29  A    between atoms: _60  and  _63
REMARK   30  A    between atoms: _63  and  _64
REMARK   31  A    between atoms: _64  and  _65
REMARK   32  A    between atoms: _67  and  _69
REMARK   33  A    between atoms: _69  and  _70
REMARK   34  A    between atoms: _69  and  _72
REMARK   35  A    between atoms: _72  and  _73
REMARK   36  A    between atoms: _76  and  _78
REMARK   37  A    between atoms: _78  and  _79
REMARK   38  A    between atoms: _78  and  _81
REMARK   39  A    between atoms: _81  and  _82
REMARK   40  A    between atoms: _85  and  _87
REMARK   41  A    between atoms: _87  and  _88
REMARK   42  A    between atoms: _87  and  _90
REMARK   43  A    between atoms: _90  and  _91
REMARK   44  A    between atoms: _94  and  _96
REMARK   45  A    between atoms: _96  and  _97
REMARK   46  A    between atoms: _96  and  _99
REMARK   47  A    between atoms: _99  and  _100
REMARK   48  A    between atoms: _105  and  _107
REMARK   49  A    between atoms: _107  and  _108
REMARK   50  A    between atoms: _107  and  _110
REMARK   51  A    between atoms: _110  and  _111
REMARK   52  A    between atoms: _114  and  _116
REMARK   53  A    between atoms: _116  and  _117
REMARK   54  A    between atoms: _120  and  _122
REMARK   55  A    between atoms: _122  and  _123
REMARK   56  A    between atoms: _122  and  _125
REMARK   57  A    between atoms: _125  and  _126
REMARK   58  A    between atoms: _129  and  _131
REMARK   59  A    between atoms: _131  and  _132
REMARK   60  A    between atoms: _131  and  _134
REMARK   61  A    between atoms: _134  and  _135
REMARK   62  A    between atoms: _135  and  _136
REMARK   63  A    between atoms: _136  and  _137
REMARK   64  A    between atoms: _146  and  _148
REMARK   65  A    between atoms: _148  and  _149
REMARK   66  A    between atoms: _148  and  _151
REMARK   67  A    between atoms: _151  and  _152
REMARK   68  A    between atoms: _152  and  _153
REMARK   69  A    between atoms: _156  and  _158
REMARK   70  A    between atoms: _158  and  _159
REMARK   71  A    between atoms: _158  and  _161
REMARK   72  A    between atoms: _161  and  _162
REMARK   73  A    between atoms: _165  and  _167
REMARK   74  A    between atoms: _167  and  _168
REMARK   75  A    between atoms: _167  and  _170
REMARK   76  A    between atoms: _170  and  _171
REMARK   77  A    between atoms: _171  and  _172
REMARK   78  A    between atoms: _174  and  _176
REMARK   79  A    between atoms: _176  and  _177
REMARK   80  A    between atoms: _176  and  _179
REMARK   81  A    between atoms: _179  and  _180
REMARK   82  A    between atoms: _190  and  _192
REMARK   83  A    between atoms: _192  and  _193
REMARK   84  A    between atoms: _192  and  _195
REMARK   85  A    between atoms: _195  and  _196
REMARK   86  A    between atoms: _199  and  _201
REMARK   87  A    between atoms: _201  and  _202
REMARK   88  A    between atoms: _201  and  _204
REMARK   89  A    between atoms: _204  and  _205
REMARK   90  A    between atoms: _205  and  _206
REMARK   91  A    between atoms: _209  and  _211
REMARK   92  A    between atoms: _211  and  _212
REMARK   93  A    between atoms: _211  and  _214
REMARK   94  A    between atoms: _214  and  _215
REMARK   95  A    between atoms: _218  and  _220
REMARK   96  A    between atoms: _220  and  _221
REMARK   97  A    between atoms: _220  and  _223
REMARK   98  A    between atoms: _223  and  _224
REMARK   99  A    between atoms: _227  and  _229
REMARK  100  A    between atoms: _229  and  _230
REMARK  101  A    between atoms: _229  and  _232
REMARK  102  A    between atoms: _232  and  _233
REMARK  103  A    between atoms: _233  and  _234
REMARK  104  A    between atoms: _236  and  _238
REMARK  105  A    between atoms: _238  and  _239
REMARK  106  A    between atoms: _238  and  _241
REMARK  107  A    between atoms: _241  and  _242
REMARK  108  A    between atoms: _245  and  _247
REMARK  109  A    between atoms: _247  and  _248
REMARK  110  A    between atoms: _250  and  _252
REMARK  111  A    between atoms: _252  and  _253
REMARK  112  A    between atoms: _252  and  _255
REMARK  113  A    between atoms: _255  and  _256
REMARK  114  A    between atoms: _259  and  _261
REMARK  115  A    between atoms: _261  and  _262
REMARK  116  A    between atoms: _261  and  _264
REMARK  117  A    between atoms: _267  and  _269
REMARK  118  A    between atoms: _269  and  _270
REMARK  119  A    between atoms: _269  and  _272
REMARK  120  A    between atoms: _272  and  _273
REMARK  121  A    between atoms: _273  and  _274
REMARK  122  A    between atoms: _274  and  _275
REMARK  123  A    between atoms: _284  and  _286
REMARK  124  A    between atoms: _286  and  _287
REMARK  125  A    between atoms: _286  and  _289
REMARK  126  A    between atoms: _289  and  _290
REMARK  127  A    between atoms: _293  and  _295
REMARK  128  A    between atoms: _295  and  _296
REMARK  129  A    between atoms: _295  and  _298
REMARK  130  A    between atoms: _298  and  _299
REMARK  131  A    between atoms: _302  and  _304
REMARK  132  A    between atoms: _304  and  _305
REMARK  133  A    between atoms: _304  and  _307
REMARK  134  A    between atoms: _307  and  _308
REMARK  135  A    between atoms: _314  and  _316
REMARK  136  A    between atoms: _316  and  _317
REMARK  137  A    between atoms: _320  and  _322
REMARK  138  A    between atoms: _322  and  _323
REMARK  139  A    between atoms: _322  and  _325
REMARK  140  A    between atoms: _325  and  _326
REMARK  141  A    between atoms: _329  and  _331
REMARK  142  A    between atoms: _331  and  _332
REMARK  143  A    between atoms: _331  and  _334
REMARK  144  A    between atoms: _334  and  _335
REMARK  145  A    between atoms: _338  and  _340
REMARK  146  A    between atoms: _340  and  _341
REMARK  147  A    between atoms: _340  and  _343
REMARK  148  A    between atoms: _343  and  _344
REMARK  149  A    between atoms: _347  and  _349
REMARK  150  A    between atoms: _349  and  _350
REMARK  151  A    between atoms: _349  and  _352
REMARK  152  A    between atoms: _352  and  _353
REMARK  153  A    between atoms: _353  and  _354
REMARK  154  A    between atoms: _359  and  _361
REMARK  155  A    between atoms: _361  and  _362
REMARK  156  A    between atoms: _361  and  _364
REMARK  157  A    between atoms: _364  and  _365
REMARK  158  A    between atoms: _365  and  _366
REMARK  159  A    between atoms: _366  and  _367
REMARK  160  A    between atoms: _367  and  _368
REMARK  161  A    between atoms: _372  and  _374
REMARK  162  A    between atoms: _374  and  _375
REMARK  163  A    between atoms: _374  and  _377
REMARK  164  A    between atoms: _379  and  _381
REMARK  165  A    between atoms: _381  and  _382
REMARK  166  A    between atoms: _381  and  _384
REMARK  167  A    between atoms: _387  and  _389
REMARK  168  A    between atoms: _389  and  _390
REMARK  169  A    between atoms: _389  and  _392
REMARK  170  A    between atoms: _392  and  _393
REMARK  171  A    between atoms: _393  and  _394
REMARK  172  A    between atoms: _397  and  _399
REMARK  173  A    between atoms: _399  and  _400
REMARK  174  A    between atoms: _402  and  _404
REMARK  175  A    between atoms: _404  and  _405
REMARK  176  A    between atoms: _404  and  _407
REMARK  177  A    between atoms: _407  and  _408
REMARK  178  A    between atoms: _408  and  _409
REMARK  179  A    between atoms: _411  and  _413
REMARK  180  A    between atoms: _413  and  _414
REMARK  181  A    between atoms: _413  and  _416
REMARK  182  A    between atoms: _419  and  _421
REMARK  183  A    between atoms: _421  and  _422
REMARK  184  A    between atoms: _421  and  _424
REMARK  185  A    between atoms: _424  and  _425
REMARK  186  A    between atoms: _425  and  _426
REMARK  187  A    between atoms: _429  and  _431
REMARK  188  A    between atoms: _431  and  _432
REMARK  189  A    between atoms: _431  and  _434
REMARK  190  A    between atoms: _434  and  _435
REMARK  191  A    between atoms: _438  and  _440
REMARK  192  A    between atoms: _440  and  _441
REMARK  193  A    between atoms: _440  and  _443
REMARK  194  A    between atoms: _443  and  _444
REMARK  195  A    between atoms: _450  and  _452
REMARK  196  A    between atoms: _452  and  _453
REMARK  197  A    between atoms: _452  and  _455
REMARK  198  A    between atoms: _455  and  _456
REMARK  199  A    between atoms: _459  and  _461
REMARK  200  A    between atoms: _461  and  _462
REMARK  201  A    between atoms: _461  and  _464
REMARK  202  A    between atoms: _464  and  _465
REMARK  203  A    between atoms: _465  and  _466
REMARK  204  A    between atoms: _468  and  _470
REMARK  205  A    between atoms: _470  and  _471
REMARK  206  A    between atoms: _470  and  _473
REMARK  207  A    between atoms: _473  and  _474
REMARK  208  A    between atoms: _477  and  _479
REMARK  209  A    between atoms: _479  and  _480
REMARK  210  A    between atoms: _479  and  _482
REMARK  211  A    between atoms: _482  and  _483
REMARK  212  A    between atoms: _486  and  _488
REMARK  213  A    between atoms: _488  and  _489
REMARK  214  A    between atoms: _488  and  _491
REMARK  215  A    between atoms: _491  and  _492
REMARK  216  A    between atoms: _492  and  _493
REMARK  217  A    between atoms: _495  and  _497
REMARK  218  A    between atoms: _497  and  _498
REMARK  219  A    between atoms: _497  and  _500
REMARK  220  A    between atoms: _500  and  _501
REMARK  221  A    between atoms: _503  and  _505
REMARK  222  A    between atoms: _505  and  _506
REMARK  223  A    between atoms: _505  and  _508
REMARK  224  A    between atoms: _508  and  _509
REMARK  225  A    between atoms: _509  and  _510
REMARK  226  A    between atoms: _510  and  _511
REMARK  227  A    between atoms: _511  and  _512
REMARK  228  A    between atoms: _516  and  _518
REMARK  229  A    between atoms: _518  and  _519
REMARK  230  A    between atoms: _521  and  _523
REMARK  231  A    between atoms: _523  and  _524
REMARK  232  A    between atoms: _523  and  _526
REMARK  233  A    between atoms: _526  and  _527
REMARK  234  A    between atoms: _527  and  _528
REMARK  235  A    between atoms: _530  and  _532
REMARK  236  A    between atoms: _532  and  _533
REMARK  237  A    between atoms: _532  and  _535
REMARK  238  A    between atoms: _535  and  _536
REMARK  239  A    between atoms: _536  and  _537
REMARK  240  A    between atoms: _540  and  _542
REMARK  241  A    between atoms: _542  and  _543
REMARK  242  A    between atoms: _542  and  _545
REMARK  243  A    between atoms: _545  and  _546
REMARK  244  A    between atoms: _551  and  _553
REMARK  245  A    between atoms: _553  and  _554
REMARK  246  A    between atoms: _553  and  _556
REMARK  247  A    between atoms: _556  and  _557
REMARK  248  A    between atoms: _560  and  _562
REMARK  249  A    between atoms: _562  and  _563
REMARK  250  A    between atoms: _562  and  _565
REMARK  251  A    between atoms: _565  and  _566
REMARK  252  A    between atoms: _571  and  _572
REMARK  253  A    between atoms: _574  and  _576
REMARK  254  A    between atoms: _576  and  _577
REMARK  255  A    between atoms: _576  and  _579
REMARK  256  A    between atoms: _579  and  _580
REMARK  257  A    between atoms: _582  and  _584
REMARK  258  A    between atoms: _584  and  _585
REMARK  259  A    between atoms: _584  and  _587
REMARK  260  A    between atoms: _587  and  _588
REMARK  261  A    between atoms: _588  and  _589
REMARK  262  A    between atoms: _591  and  _593
REMARK  263  A    between atoms: _593  and  _594
REMARK  264  A    between atoms: _593  and  _596
REMARK  265  A    between atoms: _596  and  _597
REMARK  266  A    between atoms: _597  and  _598
REMARK  267  A    between atoms: _598  and  _599
REMARK  268  A    between atoms: _599  and  _600
REMARK  269  A    between atoms: _604  and  _606
REMARK  270  A    between atoms: _606  and  _607
REMARK  271  A    between atoms: _606  and  _609
REMARK  272  A    between atoms: _612  and  _614
REMARK  273  A    between atoms: _614  and  _615
REMARK  274  A    between atoms: _614  and  _617
REMARK  275  A    between atoms: _617  and  _618
REMARK  276  A    between atoms: _621  and  _623
REMARK  277  A    between atoms: _623  and  _624
REMARK  278  A    between atoms: _623  and  _626
REMARK  279  A    between atoms: _626  and  _627
REMARK  280  A    between atoms: _630  and  _632
REMARK  281  A    between atoms: _632  and  _633
REMARK  282  A    between atoms: _632  and  _635
REMARK  283  A    between atoms: _635  and  _636
REMARK                            x       y       z     vdW  Elec       q    Type
REMARK                         _______ _______ _______ _____ _____    ______ ____
ROOT
ATOM      1  NE  ARG A   1     -24.519   6.146  17.638  0.00  0.00    -0.265 N 
ATOM      2  CZ  ARG A   1     -25.153   5.056  18.104  0.00  0.00    +0.342 C 
ATOM      3  NH2 ARG A   1     -24.496   4.009  18.587  0.00  0.00    -0.292 N 
ATOM      4 HH21 ARG A   1     -25.021   3.183  18.939  0.00  0.00    +0.255 HD
ATOM      5 HH22 ARG A   1     -23.456   4.015  18.614  0.00  0.00    +0.255 HD
ATOM      6  NH1 ARG A   1     -26.486   5.032  18.126  0.00  0.00    -0.292 N 
ATOM      7 HH11 ARG A   1     -26.985   4.193  18.485  0.00  0.00    +0.255 HD
ATOM      8 HH12 ARG A   1     -27.027   5.852  17.784  0.00  0.00    +0.255 HD
ATOM      9  HE  ARG A   1     -25.111   6.956  17.362  0.00  0.00    +0.259 HD
ENDROOT
BRANCH   1  10
ATOM     10  CD  ARG A   1     -23.077   6.296  17.484  0.00  0.00    +0.174 C 
BRANCH  10  11
ATOM     11  CG  ARG A   1     -22.332   6.735  18.734  0.00  0.00    +0.045 C 
BRANCH  11  12
ATOM     12  CB  ARG A   1     -22.805   8.083  19.223  0.00  0.00    +0.029 C 
BRANCH  12  13
ATOM     13  CA  ARG A   1     -21.867   8.700  20.274  0.00  0.00    +0.133 C 
BRANCH  13  14
ATOM     14  N   ARG A   1     -21.935   7.923  21.547  0.00  0.00    -0.239 NA
ATOM     15  H   ARG A   1     -22.547   7.084  21.597  0.00  0.00    +0.142 HD
ENDBRANCH  13  14
BRANCH  13  16
ATOM     16  C   ARG A   1     -22.287  10.158  20.483  0.00  0.00    +0.224 C 
ATOM     17  O   ARG A   1     -21.791  11.067  19.788  0.00  0.00    -0.287 OA
ENDBRANCH  13  16
ENDBRANCH  12  13
ENDBRANCH  11  12
ENDBRANCH  10  11
ENDBRANCH   1  10
TORSDOF 6
REMARK  Name = ../refined-set-2016/2p15/2p15_pocket.pdb
REMARK  283 active torsions:
REMARK  status: ('A' for Active; 'I' for Inactive)
REMARK    1  A    between atoms: _1  and  _3
REMARK    2  A    between atoms: _3  and  _4
REMARK    3  A    between atoms: _3  and  _6
REMARK    4  A    between atoms: _6  and  _7
REMARK    5  A    between atoms: _10  and  _12
REMARK    6  A    between atoms: _12  and  _13
REMARK    7  A    between atoms: _12  and  _15
REMARK    8  A    between atoms: _15  and  _16
REMARK    9  A    between atoms: _19  and  _21
REMARK   10  A    between atoms: _21  and  _22
REMARK   11  A    between atoms: _21  and  _24
REMARK   12  A    between atoms: _24  and  _25
REMARK   13  A    between atoms: _31  and  _33
REMARK   14  A    between atoms: _33  and  _34
REMARK   15  A    between atoms: _33  and  _36
REMARK   16  A    between atoms: _36  and  _37
REMARK   17  A    between atoms: _39  and  _41
REMARK   18  A    between atoms: _41  and  _42
REMARK   19  A    between atoms: _41  and  _44
REMARK   20  A    between atoms: _44  and  _45
REMARK   21  A    between atoms: _45  and  _46
REMARK   22  A    between atoms: _49  and  _51
REMARK   23  A    between atoms: _51  and  _52
REMARK   24  A    between atoms: _51  and  _54
REMARK   25  A    between atoms: _54  and  _55
REMARK   26  A    between atoms: _55  and  _56
REMARK   27  A    between atoms: _58  and  _60
REMARK   28  A    between atoms: _60  and  _61
REMARK   29  A    between atoms: _60  and  _63
REMARK   30  A    between atoms: _63  and  _64
REMARK   31  A    between atoms: _64  and  _65
REMARK   32  A    between atoms: _67  and  _69
REMARK   33  A    between atoms: _69  and  _70
REMARK   34  A    between atoms: _69  and  _72
REMARK   35  A    between atoms: _72  and  _73
REMARK   36  A    between atoms: _76  and  _78
REMARK   37  A    between atoms: _78  and  _79
REMARK   38  A    between atoms: _78  and  _81
REMARK   39  A    between atoms: _81  and  _82
REMARK   40  A    between atoms: _85  and  _87
REMARK   41  A    between atoms: _87  and  _88
REMARK   42  A    between atoms: _87  and  _90
REMARK   43  A    between atoms: _90  and  _91
REMARK   44  A    between atoms: _94  and  _96
REMARK   45  A    between atoms: _96  and  _97
REMARK   46  A    between atoms: _96  and  _99
REMARK   47  A    between atoms: _99  and  _100
REMARK   48  A    between atoms: _105  and  _107
REMARK   49  A    between atoms: _107  and  _108
REMARK   50  A    between atoms: _107  and  _110
REMARK   51  A    between atoms: _110  and  _111
REMARK   52  A    between atoms: _114  and  _116
REMARK   53  A    between atoms: _116  and  _117
REMARK   54  A    between atoms: _120  and  _122
REMARK   55  A    between atoms: _122  and  _123
REMARK   56  A    between atoms: _122  and  _125
REMARK   57  A    between atoms: _125  and  _126
REMARK   58  A    between atoms: _129  and  _131
REMARK   59  A    between atoms: _131  and  _132
REMARK   60  A    between atoms: _131  and  _134
REMARK   61  A    between atoms: _134  and  _135
REMARK   62  A    between atoms: _135  and  _136
REMARK   63  A    between atoms: _136  and  _137
REMARK   64  A    between atoms: _146  and  _148
REMARK   65  A    between atoms: _148  and  _149
REMARK   66  A    between atoms: _148  and  _151
REMARK   67  A    between atoms: _151  and  _152
REMARK   68  A    between atoms: _152  and  _153
REMARK   69  A    between atoms: _156  and  _158
REMARK   70  A    between atoms: _158  and  _159
REMARK   71  A    between atoms: _158  and  _161
REMARK   72  A    between atoms: _161  and  _162
REMARK   73  A    between atoms: _165  and  _167
REMARK   74  A    between atoms: _167  and  _168
REMARK   75  A    between atoms: _167  and  _170
REMARK   76  A    between atoms: _170  and  _171
REMARK   77  A    between atoms: _171  and  _172
REMARK   78  A    between atoms: _174  and  _176
REMARK   79  A    between atoms: _176  and  _177
REMARK   80  A    between atoms: _176  and  _179
REMARK   81  A    between atoms: _179  and  _180
REMARK   82  A    between atoms: _190  and  _192
REMARK   83  A    between atoms: _192  and  _193
REMARK   84  A    between atoms: _192  and  _195
REMARK   85  A    between atoms: _195  and  _196
REMARK   86  A    between atoms: _199  and  _201
REMARK   87  A    between atoms: _201  and  _202
REMARK   88  A    between atoms: _201  and  _204
REMARK   89  A    between atoms: _204  and  _205
REMARK   90  A    between atoms: _205  and  _206
REMARK   91  A    between atoms: _209  and  _211
REMARK   92  A    between atoms: _211  and  _212
REMARK   93  A    between atoms: _211  and  _214
REMARK   94  A    between atoms: _214  and  _215
REMARK   95  A    between atoms: _218  and  _220
REMARK   96  A    between atoms: _220  and  _221
REMARK   97  A    between atoms: _220  and  _223
REMARK   98  A    between atoms: _223  and  _224
REMARK   99  A    between atoms: _227  and  _229
REMARK  100  A    between atoms: _229  and  _230
REMARK  101  A    between atoms: _229  and  _232
REMARK  102  A    between atoms: _232  and  _233
REMARK  103  A    between atoms: _233  and  _234
REMARK  104  A    between atoms: _236  and  _238
REMARK  105  A    between atoms: _238  and  _239
REMARK  106  A    between atoms: _238  and  _241
REMARK  107  A    between atoms: _241  and  _242
REMARK  108  A    between atoms: _245  and  _247
REMARK  109  A    between atoms: _247  and  _248
REMARK  110  A    between atoms: _250  and  _252
REMARK  111  A    between atoms: _252  and  _253
REMARK  112  A    between atoms: _252  and  _255
REMARK  113  A    between atoms: _255  and  _256
REMARK  114  A    between atoms: _259  and  _261
REMARK  115  A    between atoms: _261  and  _262
REMARK  116  A    between atoms: _261  and  _264
REMARK  117  A    between atoms: _267  and  _269
REMARK  118  A    between atoms: _269  and  _270
REMARK  119  A    between atoms: _269  and  _272
REMARK  120  A    between atoms: _272  and  _273
REMARK  121  A    between atoms: _273  and  _274
REMARK  122  A    between atoms: _274  and  _275
REMARK  123  A    between atoms: _284  and  _286
REMARK  124  A    between atoms: _286  and  _287
REMARK  125  A    between atoms: _286  and  _289
REMARK  126  A    between atoms: _289  and  _290
REMARK  127  A    between atoms: _293  and  _295
REMARK  128  A    between atoms: _295  and  _296
REMARK  129  A    between atoms: _295  and  _298
REMARK  130  A    between atoms: _298  and  _299
REMARK  131  A    between atoms: _302  and  _304
REMARK  132  A    between atoms: _304  and  _305
REMARK  133  A    between atoms: _304  and  _307
REMARK  134  A    between atoms: _307  and  _308
REMARK  135  A    between atoms: _314  and  _316
REMARK  136  A    between atoms: _316  and  _317
REMARK  137  A    between atoms: _320  and  _322
REMARK  138  A    between atoms: _322  and  _323
REMARK  139  A    between atoms: _322  and  _325
REMARK  140  A    between atoms: _325  and  _326
REMARK  141  A    between atoms: _329  and  _331
REMARK  142  A    between atoms: _331  and  _332
REMARK  143  A    between atoms: _331  and  _334
REMARK  144  A    between atoms: _334  and  _335
REMARK  145  A    between atoms: _338  and  _340
REMARK  146  A    between atoms: _340  and  _341
REMARK  147  A    between atoms: _340  and  _343
REMARK  148  A    between atoms: _343  and  _344
REMARK  149  A    between atoms: _347  and  _349
REMARK  150  A    between atoms: _349  and  _350
REMARK  151  A    between atoms: _349  and  _352
REMARK  152  A    between atoms: _352  and  _353
REMARK  153  A    between atoms: _353  and  _354
REMARK  154  A    between atoms: _359  and  _361
REMARK  155  A    between atoms: _361  and  _362
REMARK  156  A    between atoms: _361  and  _364
REMARK  157  A    between atoms: _364  and  _365
REMARK  158  A    between atoms: _365  and  _366
REMARK  159  A    between atoms: _366  and  _367
REMARK  160  A    between atoms: _367  and  _368
REMARK  161  A    between atoms: _372  and  _374
REMARK  162  A    between atoms: _374  and  _375
REMARK  163  A    between atoms: _374  and  _377
REMARK  164  A    between atoms: _379  and  _381
REMARK  165  A    between atoms: _381  and  _382
REMARK  166  A    between atoms: _381  and  _384
REMARK  167  A    between atoms: _387  and  _389
REMARK  168  A    between atoms: _389  and  _390
REMARK  169  A    between atoms: _389  and  _392
REMARK  170  A    between atoms: _392  and  _393
REMARK  171  A    between atoms: _393  and  _394
REMARK  172  A    between atoms: _397  and  _399
REMARK  173  A    between atoms: _399  and  _400
REMARK  174  A    between atoms: _402  and  _404
REMARK  175  A    between atoms: _404  and  _405
REMARK  176  A    between atoms: _404  and  _407
REMARK  177  A    between atoms: _407  and  _408
REMARK  178  A    between atoms: _408  and  _409
REMARK  179  A    between atoms: _411  and  _413
REMARK  180  A    between atoms: _413  and  _414
REMARK  181  A    between atoms: _413  and  _416
REMARK  182  A    between atoms: _419  and  _421
REMARK  183  A    between atoms: _421  and  _422
REMARK  184  A    between atoms: _421  and  _424
REMARK  185  A    between atoms: _424  and  _425
REMARK  186  A    between atoms: _425  and  _426
REMARK  187  A    between atoms: _429  and  _431
REMARK  188  A    between atoms: _431  and  _432
REMARK  189  A    between atoms: _431  and  _434
REMARK  190  A    between atoms: _434  and  _435
REMARK  191  A    between atoms: _438  and  _440
REMARK  192  A    between atoms: _440  and  _441
REMARK  193  A    between atoms: _440  and  _443
REMARK  194  A    between atoms: _443  and  _444
REMARK  195  A    between atoms: _450  and  _452
REMARK  196  A    between atoms: _452  and  _453
REMARK  197  A    between atoms: _452  and  _455
REMARK  198  A    between atoms: _455  and  _456
REMARK  199  A    between atoms: _459  and  _461
REMARK  200  A    between atoms: _461  and  _462
REMARK  201  A    between atoms: _461  and  _464
REMARK  202  A    between atoms: _464  and  _465
REMARK  203  A    between atoms: _465  and  _466
REMARK  204  A    between atoms: _468  and  _470
REMARK  205  A    between atoms: _470  and  _471
REMARK  206  A    between atoms: _470  and  _473
REMARK  207  A    between atoms: _473  and  _474
REMARK  208  A    between atoms: _477  and  _479
REMARK  209  A    between atoms: _479  and  _480
REMARK  210  A    between atoms: _479  and  _482
REMARK  211  A    between atoms: _482  and  _483
REMARK  212  A    between atoms: _486  and  _488
REMARK  213  A    between atoms: _488  and  _489
REMARK  214  A    between atoms: _488  and  _491
REMARK  215  A    between atoms: _491  and  _492
REMARK  216  A    between atoms: _492  and  _493
REMARK  217  A    between atoms: _495  and  _497
REMARK  218  A    between atoms: _497  and  _498
REMARK  219  A    between atoms: _497  and  _500
REMARK  220  A    between atoms: _500  and  _501
REMARK  221  A    between atoms: _503  and  _505
REMARK  222  A    between atoms: _505  and  _506
REMARK  223  A    between atoms: _505  and  _508
REMARK  224  A    between atoms: _508  and  _509
REMARK  225  A    between atoms: _509  and  _510
REMARK  226  A    between atoms: _510  and  _511
REMARK  227  A    between atoms: _511  and  _512
REMARK  228  A    between atoms: _516  and  _518
REMARK  229  A    between atoms: _518  and  _519
REMARK  230  A    between atoms: _521  and  _523
REMARK  231  A    between atoms: _523  and  _524
REMARK  232  A    between atoms: _523  and  _526
REMARK  233  A    between atoms: _526  and  _527
REMARK  234  A    between atoms: _527  and  _528
REMARK  235  A    between atoms: _530  and  _532
REMARK  236  A    between atoms: _532  and  _533
REMARK  237  A    between atoms: _532  and  _535
REMARK  238  A    between atoms: _535  and  _536
REMARK  239  A    between atoms: _536  and  _537
REMARK  240  A    between atoms: _540  and  _542
REMARK  241  A    between atoms: _542  and  _543
REMARK  242  A    between atoms: _542  and  _545
REMARK  243  A    between atoms: _545  and  _546
REMARK  244  A    between atoms: _551  and  _553
REMARK  245  A    between atoms: _553  and  _554
REMARK  246  A    between atoms: _553  and  _556
REMARK  247  A    between atoms: _556  and  _557
REMARK  248  A    between atoms: _560  and  _562
REMARK  249  A    between atoms: _562  and  _563
REMARK  250  A    between atoms: _562  and  _565
REMARK  251  A    between atoms: _565  and  _566
REMARK  252  A    between atoms: _571  and  _572
REMARK  253  A    between atoms: _574  and  _576
REMARK  254  A    between atoms: _576  and  _577
REMARK  255  A    between atoms: _576  and  _579
REMARK  256  A    between atoms: _579  and  _580
REMARK  257  A    between atoms: _582  and  _584
REMARK  258  A    between atoms: _584  and  _585
REMARK  259  A    between atoms: _584  and  _587
REMARK  260  A    between atoms: _587  and  _588
REMARK  261  A    between atoms: _588  and  _589
REMARK  262  A    between atoms: _591  and  _593
REMARK  263  A    between atoms: _593  and  _594
REMARK  264  A    between atoms: _593  and  _596
REMARK  265  A    between atoms: _596  and  _597
REMARK  266  A    between atoms: _597  and  _598
REMARK  267  A    between atoms: _598  and  _599
REMARK  268  A    between atoms: _599  and  _600
REMARK  269  A    between atoms: _604  and  _606
REMARK  270  A    between atoms: _606  and  _607
REMARK  271  A    between atoms: _606  and  _609
REMARK  272  A    between atoms: _612  and  _614
REMARK  273  A    between atoms: _614  and  _615
REMARK  274  A    between atoms: _614  and  _617
REMARK  275  A    between atoms: _617  and  _618
REMARK  276  A    between atoms: _621  and  _623
REMARK  277  A    between atoms: _623  and  _624
REMARK  278  A    between atoms: _623  and  _626
REMARK  279  A    between atoms: _626  and  _627
REMARK  280  A    between atoms: _630  and  _632
REMARK  281  A    between atoms: _632  and  _633
REMARK  282  A    between atoms: _632  and  _635
REMARK  283  A    between atoms: _635  and  _636
REMARK                            x       y       z     vdW  Elec       q    Type
REMARK                         _______ _______ _______ _____ _____    ______ ____
ROOT
ATOM      1  C   LEU A   2     -27.053   9.617  17.443  0.00  0.00    +0.241 C 
ATOM      2  O   LEU A   2     -26.258   8.711  17.726  0.00  0.00    -0.273 OA
ATOM      3  N   PHE A   3     -28.261   9.377  16.954  0.00  0.00    -0.297 N 
ATOM      4  H   PHE A   3     -28.928  10.161  16.807  0.00  0.00    +0.150 HD
ENDROOT
BRANCH   1   5
ATOM      5  CA  LEU A   2     -26.731  11.074  17.665  0.00  0.00    +0.149 C 
BRANCH   5   7
ATOM      6  C   LEU A   1     -28.450  12.003  19.117  0.00  0.00    +0.238 C 
ATOM      7  N   LEU A   2     -27.254  11.464  18.976  0.00  0.00    -0.297 N 
ATOM      8  H   LEU A   2     -26.666  11.312  19.820  0.00  0.00    +0.150 HD
ATOM      9  O   LEU A   1     -29.224  12.220  18.174  0.00  0.00    -0.274 OA
BRANCH   6  10
ATOM     10  CA  LEU A   1     -28.817  12.372  20.537  0.00  0.00    +0.145 C 
BRANCH  10  11
ATOM     11  N   LEU A   1     -29.027  13.810  20.568  0.00  0.00    -0.238 NA
ATOM     12  H   LEU A   1     -29.793  14.220  19.997  0.00  0.00    +0.142 HD
ENDBRANCH  10  11
BRANCH  10  13
ATOM     13  CB  LEU A   1     -30.076  11.613  20.975  0.00  0.00    +0.026 C 
BRANCH  13  14
ATOM     14  CG  LEU A   1     -30.458  11.764  22.454  0.00  0.00    +0.002 C 
ATOM     15  CD2 LEU A   1     -29.320  11.303  23.377  0.00  0.00    +0.000 C 
ATOM     16  CD1 LEU A   1     -31.738  10.982  22.774  0.00  0.00    +0.000 C 
ENDBRANCH  13  14
ENDBRANCH  10  13
ENDBRANCH   6  10
ENDBRANCH   5   7
BRANCH   5  17
ATOM     17  CB  LEU A   2     -25.227  11.354  17.584  0.00  0.00    +0.029 C 
BRANCH  17  18
ATOM     18  CG  LEU A   2     -24.515  11.260  16.234  0.00  0.00    +0.002 C 
ATOM     19  CD2 LEU A   2     -23.253  12.038  16.320  0.00  0.00    +0.000 C 
ATOM     20  CD1 LEU A   2     -24.198   9.773  15.882  0.00  0.00    +0.000 C 
ENDBRANCH  17  18
ENDBRANCH   5  17
ENDBRANCH   1   5
BRANCH   3  21
ATOM     21  CA  PHE A   3     -28.659   7.995  16.618  0.00  0.00    +0.153 C 
BRANCH  21  22
ATOM     22  C   PHE A   3     -27.782   7.432  15.498  0.00  0.00    +0.241 C 
ATOM     23  O   PHE A   3     -27.347   6.269  15.527  0.00  0.00    -0.273 OA
ATOM     24  N   ALA A   4     -27.529   8.291  14.530  0.00  0.00    -0.298 N 
ATOM     25  H   ALA A   4     -27.986   9.224  14.575  0.00  0.00    +0.150 HD
BRANCH  24  26
ATOM     26  CA  ALA A   4     -26.649   8.014  13.401  0.00  0.00    +0.137 C 
ATOM     27  CB  ALA A   4     -27.444   7.437  12.252  0.00  0.00    +0.030 C 
BRANCH  26  28
ATOM     28  C   ALA A   4     -26.013   9.343  13.003  0.00  0.00    +0.227 C 
ATOM     29  O   ALA A   4     -26.515  10.402  13.386  0.00  0.00    -0.286 OA
ENDBRANCH  26  28
ENDBRANCH  24  26
ENDBRANCH  21  22
BRANCH  21  30
ATOM     30  CB  PHE A   3     -30.151   7.961  16.252  0.00  0.00    +0.055 C 
BRANCH  30  31
ATOM     31  CG  PHE A   3     -31.059   8.067  17.473  0.00  0.00    -0.020 A 
ATOM     32  CD2 PHE A   3     -31.372   6.917  18.218  0.00  0.00    -0.004 A 
ATOM     33  CE2 PHE A   3     -32.178   6.994  19.349  0.00  0.00    -0.000 A 
ATOM     34  CZ  PHE A   3     -32.664   8.249  19.778  0.00  0.00    -0.000 A 
ATOM     35  CE1 PHE A   3     -32.364   9.401  19.074  0.00  0.00    -0.000 A 
ATOM     36  CD1 PHE A   3     -31.539   9.311  17.905  0.00  0.00    -0.004 A 
ENDBRANCH  30  31
ENDBRANCH  21  30
ENDBRANCH   3  21
TORSDOF 14
REMARK  Name = ../refined-set-2016/2p15/2p15_pocket.pdb
REMARK  283 active torsions:
REMARK  status: ('A' for Active; 'I' for Inactive)
REMARK    1  A    between atoms: _1  and  _3
REMARK    2  A    between atoms: _3  and  _4
REMARK    3  A    between atoms: _3  and  _6
REMARK    4  A    between atoms: _6  and  _7
REMARK    5  A    between atoms: _10  and  _12
REMARK    6  A    between atoms: _12  and  _13
REMARK    7  A    between atoms: _12  and  _15
REMARK    8  A    between atoms: _15  and  _16
REMARK    9  A    between atoms: _19  and  _21
REMARK   10  A    between atoms: _21  and  _22
REMARK   11  A    between atoms: _21  and  _24
REMARK   12  A    between atoms: _24  and  _25
REMARK   13  A    between atoms: _31  and  _33
REMARK   14  A    between atoms: _33  and  _34
REMARK   15  A    between atoms: _33  and  _36
REMARK   16  A    between atoms: _36  and  _37
REMARK   17  A    between atoms: _39  and  _41
REMARK   18  A    between atoms: _41  and  _42
REMARK   19  A    between atoms: _41  and  _44
REMARK   20  A    between atoms: _44  and  _45
REMARK   21  A    between atoms: _45  and  _46
REMARK   22  A    between atoms: _49  and  _51
REMARK   23  A    between atoms: _51  and  _52
REMARK   24  A    between atoms: _51  and  _54
REMARK   25  A    between atoms: _54  and  _55
REMARK   26  A    between atoms: _55  and  _56
REMARK   27  A    between atoms: _58  and  _60
REMARK   28  A    between atoms: _60  and  _61
REMARK   29  A    between atoms: _60  and  _63
REMARK   30  A    between atoms: _63  and  _64
REMARK   31  A    between atoms: _64  and  _65
REMARK   32  A    between atoms: _67  and  _69
REMARK   33  A    between atoms: _69  and  _70
REMARK   34  A    between atoms: _69  and  _72
REMARK   35  A    between atoms: _72  and  _73
REMARK   36  A    between atoms: _76  and  _78
REMARK   37  A    between atoms: _78  and  _79
REMARK   38  A    between atoms: _78  and  _81
REMARK   39  A    between atoms: _81  and  _82
REMARK   40  A    between atoms: _85  and  _87
REMARK   41  A    between atoms: _87  and  _88
REMARK   42  A    between atoms: _87  and  _90
REMARK   43  A    between atoms: _90  and  _91
REMARK   44  A    between atoms: _94  and  _96
REMARK   45  A    between atoms: _96  and  _97
REMARK   46  A    between atoms: _96  and  _99
REMARK   47  A    between atoms: _99  and  _100
REMARK   48  A    between atoms: _105  and  _107
REMARK   49  A    between atoms: _107  and  _108
REMARK   50  A    between atoms: _107  and  _110
REMARK   51  A    between atoms: _110  and  _111
REMARK   52  A    between atoms: _114  and  _116
REMARK   53  A    between atoms: _116  and  _117
REMARK   54  A    between atoms: _120  and  _122
REMARK   55  A    between atoms: _122  and  _123
REMARK   56  A    between atoms: _122  and  _125
REMARK   57  A    between atoms: _125  and  _126
REMARK   58  A    between atoms: _129  and  _131
REMARK   59  A    between atoms: _131  and  _132
REMARK   60  A    between atoms: _131  and  _134
REMARK   61  A    between atoms: _134  and  _135
REMARK   62  A    between atoms: _135  and  _136
REMARK   63  A    between atoms: _136  and  _137
REMARK   64  A    between atoms: _146  and  _148
REMARK   65  A    between atoms: _148  and  _149
REMARK   66  A    between atoms: _148  and  _151
REMARK   67  A    between atoms: _151  and  _152
REMARK   68  A    between atoms: _152  and  _153
REMARK   69  A    between atoms: _156  and  _158
REMARK   70  A    between atoms: _158  and  _159
REMARK   71  A    between atoms: _158  and  _161
REMARK   72  A    between atoms: _161  and  _162
REMARK   73  A    between atoms: _165  and  _167
REMARK   74  A    between atoms: _167  and  _168
REMARK   75  A    between atoms: _167  and  _170
REMARK   76  A    between atoms: _170  and  _171
REMARK   77  A    between atoms: _171  and  _172
REMARK   78  A    between atoms: _174  and  _176
REMARK   79  A    between atoms: _176  and  _177
REMARK   80  A    between atoms: _176  and  _179
REMARK   81  A    between atoms: _179  and  _180
REMARK   82  A    between atoms: _190  and  _192
REMARK   83  A    between atoms: _192  and  _193
REMARK   84  A    between atoms: _192  and  _195
REMARK   85  A    between atoms: _195  and  _196
REMARK   86  A    between atoms: _199  and  _201
REMARK   87  A    between atoms: _201  and  _202
REMARK   88  A    between atoms: _201  and  _204
REMARK   89  A    between atoms: _204  and  _205
REMARK   90  A    between atoms: _205  and  _206
REMARK   91  A    between atoms: _209  and  _211
REMARK   92  A    between atoms: _211  and  _212
REMARK   93  A    between atoms: _211  and  _214
REMARK   94  A    between atoms: _214  and  _215
REMARK   95  A    between atoms: _218  and  _220
REMARK   96  A    between atoms: _220  and  _221
REMARK   97  A    between atoms: _220  and  _223
REMARK   98  A    between atoms: _223  and  _224
REMARK   99  A    between atoms: _227  and  _229
REMARK  100  A    between atoms: _229  and  _230
REMARK  101  A    between atoms: _229  and  _232
REMARK  102  A    between atoms: _232  and  _233
REMARK  103  A    between atoms: _233  and  _234
REMARK  104  A    between atoms: _236  and  _238
REMARK  105  A    between atoms: _238  and  _239
REMARK  106  A    between atoms: _238  and  _241
REMARK  107  A    between atoms: _241  and  _242
REMARK  108  A    between atoms: _245  and  _247
REMARK  109  A    between atoms: _247  and  _248
REMARK  110  A    between atoms: _250  and  _252
REMARK  111  A    between atoms: _252  and  _253
REMARK  112  A    between atoms: _252  and  _255
REMARK  113  A    between atoms: _255  and  _256
REMARK  114  A    between atoms: _259  and  _261
REMARK  115  A    between atoms: _261  and  _262
REMARK  116  A    between atoms: _261  and  _264
REMARK  117  A    between atoms: _267  and  _269
REMARK  118  A    between atoms: _269  and  _270
REMARK  119  A    between atoms: _269  and  _272
REMARK  120  A    between atoms: _272  and  _273
REMARK  121  A    between atoms: _273  and  _274
REMARK  122  A    between atoms: _274  and  _275
REMARK  123  A    between atoms: _284  and  _286
REMARK  124  A    between atoms: _286  and  _287
REMARK  125  A    between atoms: _286  and  _289
REMARK  126  A    between atoms: _289  and  _290
REMARK  127  A    between atoms: _293  and  _295
REMARK  128  A    between atoms: _295  and  _296
REMARK  129  A    between atoms: _295  and  _298
REMARK  130  A    between atoms: _298  and  _299
REMARK  131  A    between atoms: _302  and  _304
REMARK  132  A    between atoms: _304  and  _305
REMARK  133  A    between atoms: _304  and  _307
REMARK  134  A    between atoms: _307  and  _308
REMARK  135  A    between atoms: _314  and  _316
REMARK  136  A    between atoms: _316  and  _317
REMARK  137  A    between atoms: _320  and  _322
REMARK  138  A    between atoms: _322  and  _323
REMARK  139  A    between atoms: _322  and  _325
REMARK  140  A    between atoms: _325  and  _326
REMARK  141  A    between atoms: _329  and  _331
REMARK  142  A    between atoms: _331  and  _332
REMARK  143  A    between atoms: _331  and  _334
REMARK  144  A    between atoms: _334  and  _335
REMARK  145  A    between atoms: _338  and  _340
REMARK  146  A    between atoms: _340  and  _341
REMARK  147  A    between atoms: _340  and  _343
REMARK  148  A    between atoms: _343  and  _344
REMARK  149  A    between atoms: _347  and  _349
REMARK  150  A    between atoms: _349  and  _350
REMARK  151  A    between atoms: _349  and  _352
REMARK  152  A    between atoms: _352  and  _353
REMARK  153  A    between atoms: _353  and  _354
REMARK  154  A    between atoms: _359  and  _361
REMARK  155  A    between atoms: _361  and  _362
REMARK  156  A    between atoms: _361  and  _364
REMARK  157  A    between atoms: _364  and  _365
REMARK  158  A    between atoms: _365  and  _366
REMARK  159  A    between atoms: _366  and  _367
REMARK  160  A    between atoms: _367  and  _368
REMARK  161  A    between atoms: _372  and  _374
REMARK  162  A    between atoms: _374  and  _375
REMARK  163  A    between atoms: _374  and  _377
REMARK  164  A    between atoms: _379  and  _381
REMARK  165  A    between atoms: _381  and  _382
REMARK  166  A    between atoms: _381  and  _384
REMARK  167  A    between atoms: _387  and  _389
REMARK  168  A    between atoms: _389  and  _390
REMARK  169  A    between atoms: _389  and  _392
REMARK  170  A    between atoms: _392  and  _393
REMARK  171  A    between atoms: _393  and  _394
REMARK  172  A    between atoms: _397  and  _399
REMARK  173  A    between atoms: _399  and  _400
REMARK  174  A    between atoms: _402  and  _404
REMARK  175  A    between atoms: _404  and  _405
REMARK  176  A    between atoms: _404  and  _407
REMARK  177  A    between atoms: _407  and  _408
REMARK  178  A    between atoms: _408  and  _409
REMARK  179  A    between atoms: _411  and  _413
REMARK  180  A    between atoms: _413  and  _414
REMARK  181  A    between atoms: _413  and  _416
REMARK  182  A    between atoms: _419  and  _421
REMARK  183  A    between atoms: _421  and  _422
REMARK  184  A    between atoms: _421  and  _424
REMARK  185  A    between atoms: _424  and  _425
REMARK  186  A    between atoms: _425  and  _426
REMARK  187  A    between atoms: _429  and  _431
REMARK  188  A    between atoms: _431  and  _432
REMARK  189  A    between atoms: _431  and  _434
REMARK  190  A    between atoms: _434  and  _435
REMARK  191  A    between atoms: _438  and  _440
REMARK  192  A    between atoms: _440  and  _441
REMARK  193  A    between atoms: _440  and  _443
REMARK  194  A    between atoms: _443  and  _444
REMARK  195  A    between atoms: _450  and  _452
REMARK  196  A    between atoms: _452  and  _453
REMARK  197  A    between atoms: _452  and  _455
REMARK  198  A    between atoms: _455  and  _456
REMARK  199  A    between atoms: _459  and  _461
REMARK  200  A    between atoms: _461  and  _462
REMARK  201  A    between atoms: _461  and  _464
REMARK  202  A    between atoms: _464  and  _465
REMARK  203  A    between atoms: _465  and  _466
REMARK  204  A    between atoms: _468  and  _470
REMARK  205  A    between atoms: _470  and  _471
REMARK  206  A    between atoms: _470  and  _473
REMARK  207  A    between atoms: _473  and  _474
REMARK  208  A    between atoms: _477  and  _479
REMARK  209  A    between atoms: _479  and  _480
REMARK  210  A    between atoms: _479  and  _482
REMARK  211  A    between atoms: _482  and  _483
REMARK  212  A    between atoms: _486  and  _488
REMARK  213  A    between atoms: _488  and  _489
REMARK  214  A    between atoms: _488  and  _491
REMARK  215  A    between atoms: _491  and  _492
REMARK  216  A    between atoms: _492  and  _493
REMARK  217  A    between atoms: _495  and  _497
REMARK  218  A    between atoms: _497  and  _498
REMARK  219  A    between atoms: _497  and  _500
REMARK  220  A    between atoms: _500  and  _501
REMARK  221  A    between atoms: _503  and  _505
REMARK  222  A    between atoms: _505  and  _506
REMARK  223  A    between atoms: _505  and  _508
REMARK  224  A    between atoms: _508  and  _509
REMARK  225  A    between atoms: _509  and  _510
REMARK  226  A    between atoms: _510  and  _511
REMARK  227  A    between atoms: _511  and  _512
REMARK  228  A    between atoms: _516  and  _518
REMARK  229  A    between atoms: _518  and  _519
REMARK  230  A    between atoms: _521  and  _523
REMARK  231  A    between atoms: _523  and  _524
REMARK  232  A    between atoms: _523  and  _526
REMARK  233  A    between atoms: _526  and  _527
REMARK  234  A    between atoms: _527  and  _528
REMARK  235  A    between atoms: _530  and  _532
REMARK  236  A    between atoms: _532  and  _533
REMARK  237  A    between atoms: _532  and  _535
REMARK  238  A    between atoms: _535  and  _536
REMARK  239  A    between atoms: _536  and  _537
REMARK  240  A    between atoms: _540  and  _542
REMARK  241  A    between atoms: _542  and  _543
REMARK  242  A    between atoms: _542  and  _545
REMARK  243  A    between atoms: _545  and  _546
REMARK  244  A    between atoms: _551  and  _553
REMARK  245  A    between atoms: _553  and  _554
REMARK  246  A    between atoms: _553  and  _556
REMARK  247  A    between atoms: _556  and  _557
REMARK  248  A    between atoms: _560  and  _562
REMARK  249  A    between atoms: _562  and  _563
REMARK  250  A    between atoms: _562  and  _565
REMARK  251  A    between atoms: _565  and  _566
REMARK  252  A    between atoms: _571  and  _572
REMARK  253  A    between atoms: _574  and  _576
REMARK  254  A    between atoms: _576  and  _577
REMARK  255  A    between atoms: _576  and  _579
REMARK  256  A    between atoms: _579  and  _580
REMARK  257  A    between atoms: _582  and  _584
REMARK  258  A    between atoms: _584  and  _585
REMARK  259  A    between atoms: _584  and  _587
REMARK  260  A    between atoms: _587  and  _588
REMARK  261  A    between atoms: _588  and  _589
REMARK  262  A    between atoms: _591  and  _593
REMARK  263  A    between atoms: _593  and  _594
REMARK  264  A    between atoms: _593  and  _596
REMARK  265  A    between atoms: _596  and  _597
REMARK  266  A    between atoms: _597  and  _598
REMARK  267  A    between atoms: _598  and  _599
REMARK  268  A    between atoms: _599  and  _600
REMARK  269  A    between atoms: _604  and  _606
REMARK  270  A    between atoms: _606  and  _607
REMARK  271  A    between atoms: _606  and  _609
REMARK  272  A    between atoms: _612  and  _614
REMARK  273  A    between atoms: _614  and  _615
REMARK  274  A    between atoms: _614  and  _617
REMARK  275  A    between atoms: _617  and  _618
REMARK  276  A    between atoms: _621  and  _623
REMARK  277  A    between atoms: _623  and  _624
REMARK  278  A    between atoms: _623  and  _626
REMARK  279  A    between atoms: _626  and  _627
REMARK  280  A    between atoms: _630  and  _632
REMARK  281  A    between atoms: _632  and  _633
REMARK  282  A    between atoms: _632  and  _635
REMARK  283  A    between atoms: _635  and  _636
REMARK                            x       y       z     vdW  Elec       q    Type
REMARK                         _______ _______ _______ _____ _____    ______ ____
ROOT
ATOM      1  CA  LEU A   1     -29.904  11.333  12.321  0.00  0.00    +0.133 C 
ENDROOT
BRANCH   1   2
ATOM      2  N   LEU A   1     -28.667  11.260  11.530  0.00  0.00    -0.239 NA
ATOM      3  H   LEU A   1     -27.787  10.954  11.993  0.00  0.00    +0.142 HD
ENDBRANCH   1   2
BRANCH   1   4
ATOM      4  C   LEU A   1     -29.585  11.842  13.715  0.00  0.00    +0.224 C 
ATOM      5  O   LEU A   1     -29.442  11.063  14.648  0.00  0.00    -0.287 OA
ENDBRANCH   1   4
BRANCH   1   6
ATOM      6  CB  LEU A   1     -30.595   9.955  12.425  0.00  0.00    +0.025 C 
BRANCH   6   7
ATOM      7  CG  LEU A   1     -32.005   9.895  13.028  0.00  0.00    +0.002 C 
ATOM      8  CD2 LEU A   1     -32.586   8.492  12.899  0.00  0.00    +0.000 C 
ATOM      9  CD1 LEU A   1     -32.947  10.891  12.380  0.00  0.00    +0.000 C 
ENDBRANCH   6   7
ENDBRANCH   1   6
TORSDOF 4
REMARK  Name = ../refined-set-2016/2p15/2p15_pocket.pdb
REMARK  283 active torsions:
REMARK  status: ('A' for Active; 'I' for Inactive)
REMARK    1  A    between atoms: _1  and  _3
REMARK    2  A    between atoms: _3  and  _4
REMARK    3  A    between atoms: _3  and  _6
REMARK    4  A    between atoms: _6  and  _7
REMARK    5  A    between atoms: _10  and  _12
REMARK    6  A    between atoms: _12  and  _13
REMARK    7  A    between atoms: _12  and  _15
REMARK    8  A    between atoms: _15  and  _16
REMARK    9  A    between atoms: _19  and  _21
REMARK   10  A    between atoms: _21  and  _22
REMARK   11  A    between atoms: _21  and  _24
REMARK   12  A    between atoms: _24  and  _25
REMARK   13  A    between atoms: _31  and  _33
REMARK   14  A    between atoms: _33  and  _34
REMARK   15  A    between atoms: _33  and  _36
REMARK   16  A    between atoms: _36  and  _37
REMARK   17  A    between atoms: _39  and  _41
REMARK   18  A    between atoms: _41  and  _42
REMARK   19  A    between atoms: _41  and  _44
REMARK   20  A    between atoms: _44  and  _45
REMARK   21  A    between atoms: _45  and  _46
REMARK   22  A    between atoms: _49  and  _51
REMARK   23  A    between atoms: _51  and  _52
REMARK   24  A    between atoms: _51  and  _54
REMARK   25  A    between atoms: _54  and  _55
REMARK   26  A    between atoms: _55  and  _56
REMARK   27  A    between atoms: _58  and  _60
REMARK   28  A    between atoms: _60  and  _61
REMARK   29  A    between atoms: _60  and  _63
REMARK   30  A    between atoms: _63  and  _64
REMARK   31  A    between atoms: _64  and  _65
REMARK   32  A    between atoms: _67  and  _69
REMARK   33  A    between atoms: _69  and  _70
REMARK   34  A    between atoms: _69  and  _72
REMARK   35  A    between atoms: _72  and  _73
REMARK   36  A    between atoms: _76  and  _78
REMARK   37  A    between atoms: _78  and  _79
REMARK   38  A    between atoms: _78  and  _81
REMARK   39  A    between atoms: _81  and  _82
REMARK   40  A    between atoms: _85  and  _87
REMARK   41  A    between atoms: _87  and  _88
REMARK   42  A    between atoms: _87  and  _90
REMARK   43  A    between atoms: _90  and  _91
REMARK   44  A    between atoms: _94  and  _96
REMARK   45  A    between atoms: _96  and  _97
REMARK   46  A    between atoms: _96  and  _99
REMARK   47  A    between atoms: _99  and  _100
REMARK   48  A    between atoms: _105  and  _107
REMARK   49  A    between atoms: _107  and  _108
REMARK   50  A    between atoms: _107  and  _110
REMARK   51  A    between atoms: _110  and  _111
REMARK   52  A    between atoms: _114  and  _116
REMARK   53  A    between atoms: _116  and  _117
REMARK   54  A    between atoms: _120  and  _122
REMARK   55  A    between atoms: _122  and  _123
REMARK   56  A    between atoms: _122  and  _125
REMARK   57  A    between atoms: _125  and  _126
REMARK   58  A    between atoms: _129  and  _131
REMARK   59  A    between atoms: _131  and  _132
REMARK   60  A    between atoms: _131  and  _134
REMARK   61  A    between atoms: _134  and  _135
REMARK   62  A    between atoms: _135  and  _136
REMARK   63  A    between atoms: _136  and  _137
REMARK   64  A    between atoms: _146  and  _148
REMARK   65  A    between atoms: _148  and  _149
REMARK   66  A    between atoms: _148  and  _151
REMARK   67  A    between atoms: _151  and  _152
REMARK   68  A    between atoms: _152  and  _153
REMARK   69  A    between atoms: _156  and  _158
REMARK   70  A    between atoms: _158  and  _159
REMARK   71  A    between atoms: _158  and  _161
REMARK   72  A    between atoms: _161  and  _162
REMARK   73  A    between atoms: _165  and  _167
REMARK   74  A    between atoms: _167  and  _168
REMARK   75  A    between atoms: _167  and  _170
REMARK   76  A    between atoms: _170  and  _171
REMARK   77  A    between atoms: _171  and  _172
REMARK   78  A    between atoms: _174  and  _176
REMARK   79  A    between atoms: _176  and  _177
REMARK   80  A    between atoms: _176  and  _179
REMARK   81  A    between atoms: _179  and  _180
REMARK   82  A    between atoms: _190  and  _192
REMARK   83  A    between atoms: _192  and  _193
REMARK   84  A    between atoms: _192  and  _195
REMARK   85  A    between atoms: _195  and  _196
REMARK   86  A    between atoms: _199  and  _201
REMARK   87  A    between atoms: _201  and  _202
REMARK   88  A    between atoms: _201  and  _204
REMARK   89  A    between atoms: _204  and  _205
REMARK   90  A    between atoms: _205  and  _206
REMARK   91  A    between atoms: _209  and  _211
REMARK   92  A    between atoms: _211  and  _212
REMARK   93  A    between atoms: _211  and  _214
REMARK   94  A    between atoms: _214  and  _215
REMARK   95  A    between atoms: _218  and  _220
REMARK   96  A    between atoms: _220  and  _221
REMARK   97  A    between atoms: _220  and  _223
REMARK   98  A    between atoms: _223  and  _224
REMARK   99  A    between atoms: _227  and  _229
REMARK  100  A    between atoms: _229  and  _230
REMARK  101  A    between atoms: _229  and  _232
REMARK  102  A    between atoms: _232  and  _233
REMARK  103  A    between atoms: _233  and  _234
REMARK  104  A    between atoms: _236  and  _238
REMARK  105  A    between atoms: _238  and  _239
REMARK  106  A    between atoms: _238  and  _241
REMARK  107  A    between atoms: _241  and  _242
REMARK  108  A    between atoms: _245  and  _247
REMARK  109  A    between atoms: _247  and  _248
REMARK  110  A    between atoms: _250  and  _252
REMARK  111  A    between atoms: _252  and  _253
REMARK  112  A    between atoms: _252  and  _255
REMARK  113  A    between atoms: _255  and  _256
REMARK  114  A    between atoms: _259  and  _261
REMARK  115  A    between atoms: _261  and  _262
REMARK  116  A    between atoms: _261  and  _264
REMARK  117  A    between atoms: _267  and  _269
REMARK  118  A    between atoms: _269  and  _270
REMARK  119  A    between atoms: _269  and  _272
REMARK  120  A    between atoms: _272  and  _273
REMARK  121  A    between atoms: _273  and  _274
REMARK  122  A    between atoms: _274  and  _275
REMARK  123  A    between atoms: _284  and  _286
REMARK  124  A    between atoms: _286  and  _287
REMARK  125  A    between atoms: _286  and  _289
REMARK  126  A    between atoms: _289  and  _290
REMARK  127  A    between atoms: _293  and  _295
REMARK  128  A    between atoms: _295  and  _296
REMARK  129  A    between atoms: _295  and  _298
REMARK  130  A    between atoms: _298  and  _299
REMARK  131  A    between atoms: _302  and  _304
REMARK  132  A    between atoms: _304  and  _305
REMARK  133  A    between atoms: _304  and  _307
REMARK  134  A    between atoms: _307  and  _308
REMARK  135  A    between atoms: _314  and  _316
REMARK  136  A    between atoms: _316  and  _317
REMARK  137  A    between atoms: _320  and  _322
REMARK  138  A    between atoms: _322  and  _323
REMARK  139  A    between atoms: _322  and  _325
REMARK  140  A    between atoms: _325  and  _326
REMARK  141  A    between atoms: _329  and  _331
REMARK  142  A    between atoms: _331  and  _332
REMARK  143  A    between atoms: _331  and  _334
REMARK  144  A    between atoms: _334  and  _335
REMARK  145  A    between atoms: _338  and  _340
REMARK  146  A    between atoms: _340  and  _341
REMARK  147  A    between atoms: _340  and  _343
REMARK  148  A    between atoms: _343  and  _344
REMARK  149  A    between atoms: _347  and  _349
REMARK  150  A    between atoms: _349  and  _350
REMARK  151  A    between atoms: _349  and  _352
REMARK  152  A    between atoms: _352  and  _353
REMARK  153  A    between atoms: _353  and  _354
REMARK  154  A    between atoms: _359  and  _361
REMARK  155  A    between atoms: _361  and  _362
REMARK  156  A    between atoms: _361  and  _364
REMARK  157  A    between atoms: _364  and  _365
REMARK  158  A    between atoms: _365  and  _366
REMARK  159  A    between atoms: _366  and  _367
REMARK  160  A    between atoms: _367  and  _368
REMARK  161  A    between atoms: _372  and  _374
REMARK  162  A    between atoms: _374  and  _375
REMARK  163  A    between atoms: _374  and  _377
REMARK  164  A    between atoms: _379  and  _381
REMARK  165  A    between atoms: _381  and  _382
REMARK  166  A    between atoms: _381  and  _384
REMARK  167  A    between atoms: _387  and  _389
REMARK  168  A    between atoms: _389  and  _390
REMARK  169  A    between atoms: _389  and  _392
REMARK  170  A    between atoms: _392  and  _393
REMARK  171  A    between atoms: _393  and  _394
REMARK  172  A    between atoms: _397  and  _399
REMARK  173  A    between atoms: _399  and  _400
REMARK  174  A    between atoms: _402  and  _404
REMARK  175  A    between atoms: _404  and  _405
REMARK  176  A    between atoms: _404  and  _407
REMARK  177  A    between atoms: _407  and  _408
REMARK  178  A    between atoms: _408  and  _409
REMARK  179  A    between atoms: _411  and  _413
REMARK  180  A    between atoms: _413  and  _414
REMARK  181  A    between atoms: _413  and  _416
REMARK  182  A    between atoms: _419  and  _421
REMARK  183  A    between atoms: _421  and  _422
REMARK  184  A    between atoms: _421  and  _424
REMARK  185  A    between atoms: _424  and  _425
REMARK  186  A    between atoms: _425  and  _426
REMARK  187  A    between atoms: _429  and  _431
REMARK  188  A    between atoms: _431  and  _432
REMARK  189  A    between atoms: _431  and  _434
REMARK  190  A    between atoms: _434  and  _435
REMARK  191  A    between atoms: _438  and  _440
REMARK  192  A    between atoms: _440  and  _441
REMARK  193  A    between atoms: _440  and  _443
REMARK  194  A    between atoms: _443  and  _444
REMARK  195  A    between atoms: _450  and  _452
REMARK  196  A    between atoms: _452  and  _453
REMARK  197  A    between atoms: _452  and  _455
REMARK  198  A    between atoms: _455  and  _456
REMARK  199  A    between atoms: _459  and  _461
REMARK  200  A    between atoms: _461  and  _462
REMARK  201  A    between atoms: _461  and  _464
REMARK  202  A    between atoms: _464  and  _465
REMARK  203  A    between atoms: _465  and  _466
REMARK  204  A    between atoms: _468  and  _470
REMARK  205  A    between atoms: _470  and  _471
REMARK  206  A    between atoms: _470  and  _473
REMARK  207  A    between atoms: _473  and  _474
REMARK  208  A    between atoms: _477  and  _479
REMARK  209  A    between atoms: _479  and  _480
REMARK  210  A    between atoms: _479  and  _482
REMARK  211  A    between atoms: _482  and  _483
REMARK  212  A    between atoms: _486  and  _488
REMARK  213  A    between atoms: _488  and  _489
REMARK  214  A    between atoms: _488  and  _491
REMARK  215  A    between atoms: _491  and  _492
REMARK  216  A    between atoms: _492  and  _493
REMARK  217  A    between atoms: _495  and  _497
REMARK  218  A    between atoms: _497  and  _498
REMARK  219  A    between atoms: _497  and  _500
REMARK  220  A    between atoms: _500  and  _501
REMARK  221  A    between atoms: _503  and  _505
REMARK  222  A    between atoms: _505  and  _506
REMARK  223  A    between atoms: _505  and  _508
REMARK  224  A    between atoms: _508  and  _509
REMARK  225  A    between atoms: _509  and  _510
REMARK  226  A    between atoms: _510  and  _511
REMARK  227  A    between atoms: _511  and  _512
REMARK  228  A    between atoms: _516  and  _518
REMARK  229  A    between atoms: _518  and  _519
REMARK  230  A    between atoms: _521  and  _523
REMARK  231  A    between atoms: _523  and  _524
REMARK  232  A    between atoms: _523  and  _526
REMARK  233  A    between atoms: _526  and  _527
REMARK  234  A    between atoms: _527  and  _528
REMARK  235  A    between atoms: _530  and  _532
REMARK  236  A    between atoms: _532  and  _533
REMARK  237  A    between atoms: _532  and  _535
REMARK  238  A    between atoms: _535  and  _536
REMARK  239  A    between atoms: _536  and  _537
REMARK  240  A    between atoms: _540  and  _542
REMARK  241  A    between atoms: _542  and  _543
REMARK  242  A    between atoms: _542  and  _545
REMARK  243  A    between atoms: _545  and  _546
REMARK  244  A    between atoms: _551  and  _553
REMARK  245  A    between atoms: _553  and  _554
REMARK  246  A    between atoms: _553  and  _556
REMARK  247  A    between atoms: _556  and  _557
REMARK  248  A    between atoms: _560  and  _562
REMARK  249  A    between atoms: _562  and  _563
REMARK  250  A    between atoms: _562  and  _565
REMARK  251  A    between atoms: _565  and  _566
REMARK  252  A    between atoms: _571  and  _572
REMARK  253  A    between atoms: _574  and  _576
REMARK  254  A    between atoms: _576  and  _577
REMARK  255  A    between atoms: _576  and  _579
REMARK  256  A    between atoms: _579  and  _580
REMARK  257  A    between atoms: _582  and  _584
REMARK  258  A    between atoms: _584  and  _585
REMARK  259  A    between atoms: _584  and  _587
REMARK  260  A    between atoms: _587  and  _588
REMARK  261  A    between atoms: _588  and  _589
REMARK  262  A    between atoms: _591  and  _593
REMARK  263  A    between atoms: _593  and  _594
REMARK  264  A    between atoms: _593  and  _596
REMARK  265  A    between atoms: _596  and  _597
REMARK  266  A    between atoms: _597  and  _598
REMARK  267  A    between atoms: _598  and  _599
REMARK  268  A    between atoms: _599  and  _600
REMARK  269  A    between atoms: _604  and  _606
REMARK  270  A    between atoms: _606  and  _607
REMARK  271  A    between atoms: _606  and  _609
REMARK  272  A    between atoms: _612  and  _614
REMARK  273  A    between atoms: _614  and  _615
REMARK  274  A    between atoms: _614  and  _617
REMARK  275  A    between atoms: _617  and  _618
REMARK  276  A    between atoms: _621  and  _623
REMARK  277  A    between atoms: _623  and  _624
REMARK  278  A    between atoms: _623  and  _626
REMARK  279  A    between atoms: _626  and  _627
REMARK  280  A    between atoms: _630  and  _632
REMARK  281  A    between atoms: _632  and  _633
REMARK  282  A    between atoms: _632  and  _635
REMARK  283  A    between atoms: _635  and  _636
REMARK                            x       y       z     vdW  Elec       q    Type
REMARK                         _______ _______ _______ _____ _____    ______ ____
ROOT
ATOM      1  C   LEU A   1     -31.957  15.612  18.435  0.00  0.00    +0.238 C 
ATOM      2  O   LEU A   1     -31.144  15.350  19.308  0.00  0.00    -0.274 OA
ATOM      3  N   ASP A   2     -32.686  16.728  18.461  0.00  0.00    -0.298 N 
ATOM      4  H   ASP A   2     -33.286  16.987  17.652  0.00  0.00    +0.150 HD
ENDROOT
BRANCH   1   5
ATOM      5  CA  LEU A   1     -32.156  14.671  17.234  0.00  0.00    +0.145 C 
BRANCH   5   6
ATOM      6  N   LEU A   1     -30.899  14.136  16.724  0.00  0.00    -0.238 NA
ATOM      7  H   LEU A   1     -30.400  13.419  17.289  0.00  0.00    +0.142 HD
ENDBRANCH   5   6
BRANCH   5   8
ATOM      8  CB  LEU A   1     -33.126  13.528  17.604  0.00  0.00    +0.026 C 
BRANCH   8   9
ATOM      9  CG  LEU A   1     -33.505  12.503  16.533  0.00  0.00    +0.002 C 
ATOM     10  CD2 LEU A   1     -34.601  11.596  17.102  0.00  0.00    +0.000 C 
ATOM     11  CD1 LEU A   1     -33.942  13.170  15.247  0.00  0.00    +0.000 C 
ENDBRANCH   8   9
ENDBRANCH   5   8
ENDBRANCH   1   5
BRANCH   3  12
ATOM     12  CA  ASP A   2     -32.628  17.569  19.630  0.00  0.00    +0.148 C 
BRANCH  12  13
ATOM     13  C   ASP A   2     -34.018  17.738  20.293  0.00  0.00    +0.227 C 
ATOM     14  O   ASP A   2     -35.040  17.384  19.711  0.00  0.00    -0.286 OA
ENDBRANCH  12  13
BRANCH  12  15
ATOM     15  CB  ASP A   2     -31.970  18.909  19.269  0.00  0.00    +0.142 C 
BRANCH  15  16
ATOM     16  CG  ASP A   2     -32.647  19.591  18.121  0.00  0.00    +0.367 C 
ATOM     17  OD2 ASP A   2     -33.604  20.322  18.377  0.00  0.00    -0.246 OA
ATOM     18  OD1 ASP A   2     -32.240  19.370  16.948  0.00  0.00    -0.246 OA
ENDBRANCH  15  16
ENDBRANCH  12  15
ENDBRANCH   3  12
TORSDOF 8
REMARK  Name = ../refined-set-2016/2p15/2p15_pocket.pdb
REMARK  283 active torsions:
REMARK  status: ('A' for Active; 'I' for Inactive)
REMARK    1  A    between atoms: _1  and  _3
REMARK    2  A    between atoms: _3  and  _4
REMARK    3  A    between atoms: _3  and  _6
REMARK    4  A    between atoms: _6  and  _7
REMARK    5  A    between atoms: _10  and  _12
REMARK    6  A    between atoms: _12  and  _13
REMARK    7  A    between atoms: _12  and  _15
REMARK    8  A    between atoms: _15  and  _16
REMARK    9  A    between atoms: _19  and  _21
REMARK   10  A    between atoms: _21  and  _22
REMARK   11  A    between atoms: _21  and  _24
REMARK   12  A    between atoms: _24  and  _25
REMARK   13  A    between atoms: _31  and  _33
REMARK   14  A    between atoms: _33  and  _34
REMARK   15  A    between atoms: _33  and  _36
REMARK   16  A    between atoms: _36  and  _37
REMARK   17  A    between atoms: _39  and  _41
REMARK   18  A    between atoms: _41  and  _42
REMARK   19  A    between atoms: _41  and  _44
REMARK   20  A    between atoms: _44  and  _45
REMARK   21  A    between atoms: _45  and  _46
REMARK   22  A    between atoms: _49  and  _51
REMARK   23  A    between atoms: _51  and  _52
REMARK   24  A    between atoms: _51  and  _54
REMARK   25  A    between atoms: _54  and  _55
REMARK   26  A    between atoms: _55  and  _56
REMARK   27  A    between atoms: _58  and  _60
REMARK   28  A    between atoms: _60  and  _61
REMARK   29  A    between atoms: _60  and  _63
REMARK   30  A    between atoms: _63  and  _64
REMARK   31  A    between atoms: _64  and  _65
REMARK   32  A    between atoms: _67  and  _69
REMARK   33  A    between atoms: _69  and  _70
REMARK   34  A    between atoms: _69  and  _72
REMARK   35  A    between atoms: _72  and  _73
REMARK   36  A    between atoms: _76  and  _78
REMARK   37  A    between atoms: _78  and  _79
REMARK   38  A    between atoms: _78  and  _81
REMARK   39  A    between atoms: _81  and  _82
REMARK   40  A    between atoms: _85  and  _87
REMARK   41  A    between atoms: _87  and  _88
REMARK   42  A    between atoms: _87  and  _90
REMARK   43  A    between atoms: _90  and  _91
REMARK   44  A    between atoms: _94  and  _96
REMARK   45  A    between atoms: _96  and  _97
REMARK   46  A    between atoms: _96  and  _99
REMARK   47  A    between atoms: _99  and  _100
REMARK   48  A    between atoms: _105  and  _107
REMARK   49  A    between atoms: _107  and  _108
REMARK   50  A    between atoms: _107  and  _110
REMARK   51  A    between atoms: _110  and  _111
REMARK   52  A    between atoms: _114  and  _116
REMARK   53  A    between atoms: _116  and  _117
REMARK   54  A    between atoms: _120  and  _122
REMARK   55  A    between atoms: _122  and  _123
REMARK   56  A    between atoms: _122  and  _125
REMARK   57  A    between atoms: _125  and  _126
REMARK   58  A    between atoms: _129  and  _131
REMARK   59  A    between atoms: _131  and  _132
REMARK   60  A    between atoms: _131  and  _134
REMARK   61  A    between atoms: _134  and  _135
REMARK   62  A    between atoms: _135  and  _136
REMARK   63  A    between atoms: _136  and  _137
REMARK   64  A    between atoms: _146  and  _148
REMARK   65  A    between atoms: _148  and  _149
REMARK   66  A    between atoms: _148  and  _151
REMARK   67  A    between atoms: _151  and  _152
REMARK   68  A    between atoms: _152  and  _153
REMARK   69  A    between atoms: _156  and  _158
REMARK   70  A    between atoms: _158  and  _159
REMARK   71  A    between atoms: _158  and  _161
REMARK   72  A    between atoms: _161  and  _162
REMARK   73  A    between atoms: _165  and  _167
REMARK   74  A    between atoms: _167  and  _168
REMARK   75  A    between atoms: _167  and  _170
REMARK   76  A    between atoms: _170  and  _171
REMARK   77  A    between atoms: _171  and  _172
REMARK   78  A    between atoms: _174  and  _176
REMARK   79  A    between atoms: _176  and  _177
REMARK   80  A    between atoms: _176  and  _179
REMARK   81  A    between atoms: _179  and  _180
REMARK   82  A    between atoms: _190  and  _192
REMARK   83  A    between atoms: _192  and  _193
REMARK   84  A    between atoms: _192  and  _195
REMARK   85  A    between atoms: _195  and  _196
REMARK   86  A    between atoms: _199  and  _201
REMARK   87  A    between atoms: _201  and  _202
REMARK   88  A    between atoms: _201  and  _204
REMARK   89  A    between atoms: _204  and  _205
REMARK   90  A    between atoms: _205  and  _206
REMARK   91  A    between atoms: _209  and  _211
REMARK   92  A    between atoms: _211  and  _212
REMARK   93  A    between atoms: _211  and  _214
REMARK   94  A    between atoms: _214  and  _215
REMARK   95  A    between atoms: _218  and  _220
REMARK   96  A    between atoms: _220  and  _221
REMARK   97  A    between atoms: _220  and  _223
REMARK   98  A    between atoms: _223  and  _224
REMARK   99  A    between atoms: _227  and  _229
REMARK  100  A    between atoms: _229  and  _230
REMARK  101  A    between atoms: _229  and  _232
REMARK  102  A    between atoms: _232  and  _233
REMARK  103  A    between atoms: _233  and  _234
REMARK  104  A    between atoms: _236  and  _238
REMARK  105  A    between atoms: _238  and  _239
REMARK  106  A    between atoms: _238  and  _241
REMARK  107  A    between atoms: _241  and  _242
REMARK  108  A    between atoms: _245  and  _247
REMARK  109  A    between atoms: _247  and  _248
REMARK  110  A    between atoms: _250  and  _252
REMARK  111  A    between atoms: _252  and  _253
REMARK  112  A    between atoms: _252  and  _255
REMARK  113  A    between atoms: _255  and  _256
REMARK  114  A    between atoms: _259  and  _261
REMARK  115  A    between atoms: _261  and  _262
REMARK  116  A    between atoms: _261  and  _264
REMARK  117  A    between atoms: _267  and  _269
REMARK  118  A    between atoms: _269  and  _270
REMARK  119  A    between atoms: _269  and  _272
REMARK  120  A    between atoms: _272  and  _273
REMARK  121  A    between atoms: _273  and  _274
REMARK  122  A    between atoms: _274  and  _275
REMARK  123  A    between atoms: _284  and  _286
REMARK  124  A    between atoms: _286  and  _287
REMARK  125  A    between atoms: _286  and  _289
REMARK  126  A    between atoms: _289  and  _290
REMARK  127  A    between atoms: _293  and  _295
REMARK  128  A    between atoms: _295  and  _296
REMARK  129  A    between atoms: _295  and  _298
REMARK  130  A    between atoms: _298  and  _299
REMARK  131  A    between atoms: _302  and  _304
REMARK  132  A    between atoms: _304  and  _305
REMARK  133  A    between atoms: _304  and  _307
REMARK  134  A    between atoms: _307  and  _308
REMARK  135  A    between atoms: _314  and  _316
REMARK  136  A    between atoms: _316  and  _317
REMARK  137  A    between atoms: _320  and  _322
REMARK  138  A    between atoms: _322  and  _323
REMARK  139  A    between atoms: _322  and  _325
REMARK  140  A    between atoms: _325  and  _326
REMARK  141  A    between atoms: _329  and  _331
REMARK  142  A    between atoms: _331  and  _332
REMARK  143  A    between atoms: _331  and  _334
REMARK  144  A    between atoms: _334  and  _335
REMARK  145  A    between atoms: _338  and  _340
REMARK  146  A    between atoms: _340  and  _341
REMARK  147  A    between atoms: _340  and  _343
REMARK  148  A    between atoms: _343  and  _344
REMARK  149  A    between atoms: _347  and  _349
REMARK  150  A    between atoms: _349  and  _350
REMARK  151  A    between atoms: _349  and  _352
REMARK  152  A    between atoms: _352  and  _353
REMARK  153  A    between atoms: _353  and  _354
REMARK  154  A    between atoms: _359  and  _361
REMARK  155  A    between atoms: _361  and  _362
REMARK  156  A    between atoms: _361  and  _364
REMARK  157  A    between atoms: _364  and  _365
REMARK  158  A    between atoms: _365  and  _366
REMARK  159  A    between atoms: _366  and  _367
REMARK  160  A    between atoms: _367  and  _368
REMARK  161  A    between atoms: _372  and  _374
REMARK  162  A    between atoms: _374  and  _375
REMARK  163  A    between atoms: _374  and  _377
REMARK  164  A    between atoms: _379  and  _381
REMARK  165  A    between atoms: _381  and  _382
REMARK  166  A    between atoms: _381  and  _384
REMARK  167  A    between atoms: _387  and  _389
REMARK  168  A    between atoms: _389  and  _390
REMARK  169  A    between atoms: _389  and  _392
REMARK  170  A    between atoms: _392  and  _393
REMARK  171  A    between atoms: _393  and  _394
REMARK  172  A    between atoms: _397  and  _399
REMARK  173  A    between atoms: _399  and  _400
REMARK  174  A    between atoms: _402  and  _404
REMARK  175  A    between atoms: _404  and  _405
REMARK  176  A    between atoms: _404  and  _407
REMARK  177  A    between atoms: _407  and  _408
REMARK  178  A    between atoms: _408  and  _409
REMARK  179  A    between atoms: _411  and  _413
REMARK  180  A    between atoms: _413  and  _414
REMARK  181  A    between atoms: _413  and  _416
REMARK  182  A    between atoms: _419  and  _421
REMARK  183  A    between atoms: _421  and  _422
REMARK  184  A    between atoms: _421  and  _424
REMARK  185  A    between atoms: _424  and  _425
REMARK  186  A    between atoms: _425  and  _426
REMARK  187  A    between atoms: _429  and  _431
REMARK  188  A    between atoms: _431  and  _432
REMARK  189  A    between atoms: _431  and  _434
REMARK  190  A    between atoms: _434  and  _435
REMARK  191  A    between atoms: _438  and  _440
REMARK  192  A    between atoms: _440  and  _441
REMARK  193  A    between atoms: _440  and  _443
REMARK  194  A    between atoms: _443  and  _444
REMARK  195  A    between atoms: _450  and  _452
REMARK  196  A    between atoms: _452  and  _453
REMARK  197  A    between atoms: _452  and  _455
REMARK  198  A    between atoms: _455  and  _456
REMARK  199  A    between atoms: _459  and  _461
REMARK  200  A    between atoms: _461  and  _462
REMARK  201  A    between atoms: _461  and  _464
REMARK  202  A    between atoms: _464  and  _465
REMARK  203  A    between atoms: _465  and  _466
REMARK  204  A    between atoms: _468  and  _470
REMARK  205  A    between atoms: _470  and  _471
REMARK  206  A    between atoms: _470  and  _473
REMARK  207  A    between atoms: _473  and  _474
REMARK  208  A    between atoms: _477  and  _479
REMARK  209  A    between atoms: _479  and  _480
REMARK  210  A    between atoms: _479  and  _482
REMARK  211  A    between atoms: _482  and  _483
REMARK  212  A    between atoms: _486  and  _488
REMARK  213  A    between atoms: _488  and  _489
REMARK  214  A    between atoms: _488  and  _491
REMARK  215  A    between atoms: _491  and  _492
REMARK  216  A    between atoms: _492  and  _493
REMARK  217  A    between atoms: _495  and  _497
REMARK  218  A    between atoms: _497  and  _498
REMARK  219  A    between atoms: _497  and  _500
REMARK  220  A    between atoms: _500  and  _501
REMARK  221  A    between atoms: _503  and  _505
REMARK  222  A    between atoms: _505  and  _506
REMARK  223  A    between atoms: _505  and  _508
REMARK  224  A    between atoms: _508  and  _509
REMARK  225  A    between atoms: _509  and  _510
REMARK  226  A    between atoms: _510  and  _511
REMARK  227  A    between atoms: _511  and  _512
REMARK  228  A    between atoms: _516  and  _518
REMARK  229  A    between atoms: _518  and  _519
REMARK  230  A    between atoms: _521  and  _523
REMARK  231  A    between atoms: _523  and  _524
REMARK  232  A    between atoms: _523  and  _526
REMARK  233  A    between atoms: _526  and  _527
REMARK  234  A    between atoms: _527  and  _528
REMARK  235  A    between atoms: _530  and  _532
REMARK  236  A    between atoms: _532  and  _533
REMARK  237  A    between atoms: _532  and  _535
REMARK  238  A    between atoms: _535  and  _536
REMARK  239  A    between atoms: _536  and  _537
REMARK  240  A    between atoms: _540  and  _542
REMARK  241  A    between atoms: _542  and  _543
REMARK  242  A    between atoms: _542  and  _545
REMARK  243  A    between atoms: _545  and  _546
REMARK  244  A    between atoms: _551  and  _553
REMARK  245  A    between atoms: _553  and  _554
REMARK  246  A    between atoms: _553  and  _556
REMARK  247  A    between atoms: _556  and  _557
REMARK  248  A    between atoms: _560  and  _562
REMARK  249  A    between atoms: _562  and  _563
REMARK  250  A    between atoms: _562  and  _565
REMARK  251  A    between atoms: _565  and  _566
REMARK  252  A    between atoms: _571  and  _572
REMARK  253  A    between atoms: _574  and  _576
REMARK  254  A    between atoms: _576  and  _577
REMARK  255  A    between atoms: _576  and  _579
REMARK  256  A    between atoms: _579  and  _580
REMARK  257  A    between atoms: _582  and  _584
REMARK  258  A    between atoms: _584  and  _585
REMARK  259  A    between atoms: _584  and  _587
REMARK  260  A    between atoms: _587  and  _588
REMARK  261  A    between atoms: _588  and  _589
REMARK  262  A    between atoms: _591  and  _593
REMARK  263  A    between atoms: _593  and  _594
REMARK  264  A    between atoms: _593  and  _596
REMARK  265  A    between atoms: _596  and  _597
REMARK  266  A    between atoms: _597  and  _598
REMARK  267  A    between atoms: _598  and  _599
REMARK  268  A    between atoms: _599  and  _600
REMARK  269  A    between atoms: _604  and  _606
REMARK  270  A    between atoms: _606  and  _607
REMARK  271  A    between atoms: _606  and  _609
REMARK  272  A    between atoms: _612  and  _614
REMARK  273  A    between atoms: _614  and  _615
REMARK  274  A    between atoms: _614  and  _617
REMARK  275  A    between atoms: _617  and  _618
REMARK  276  A    between atoms: _621  and  _623
REMARK  277  A    between atoms: _623  and  _624
REMARK  278  A    between atoms: _623  and  _626
REMARK  279  A    between atoms: _626  and  _627
REMARK  280  A    between atoms: _630  and  _632
REMARK  281  A    between atoms: _632  and  _633
REMARK  282  A    between atoms: _632  and  _635
REMARK  283  A    between atoms: _635  and  _636
REMARK                            x       y       z     vdW  Elec       q    Type
REMARK                         _______ _______ _______ _____ _____    ______ ____
ROOT
ATOM      1  CB  GLN A   1     -36.839  18.614  17.017  0.00  0.00    +0.035 C 
ENDROOT
BRANCH   1   2
ATOM      2  CA  GLN A   1     -37.435  19.915  17.584  0.00  0.00    +0.134 C 
BRANCH   2   3
ATOM      3  N   GLN A   1     -36.503  20.513  18.539  0.00  0.00    -0.239 NA
ATOM      4  H   GLN A   1     -35.544  20.116  18.605  0.00  0.00    +0.142 HD
ENDBRANCH   2   3
BRANCH   2   5
ATOM      5  C   GLN A   1     -38.756  19.523  18.226  0.00  0.00    +0.224 C 
ATOM      6  O   GLN A   1     -38.770  18.892  19.299  0.00  0.00    -0.287 OA
ENDBRANCH   2   5
ENDBRANCH   1   2
BRANCH   1   7
ATOM      7  CG  GLN A   1     -35.795  18.832  15.985  0.00  0.00    +0.087 C 
BRANCH   7   8
ATOM      8  CD  GLN A   1     -35.158  17.540  15.574  0.00  0.00    +0.219 C 
ATOM      9  OE1 GLN A   1     -34.044  17.242  15.982  0.00  0.00    -0.275 OA
ATOM     10  NE2 GLN A   1     -35.872  16.749  14.784  0.00  0.00    -0.329 N 
ATOM     11 HE21 GLN A   1     -35.489  15.830  14.485  0.00  0.00    +0.145 HD
ATOM     12 HE22 GLN A   1     -36.815  17.048  14.464  0.00  0.00    +0.145 HD
ENDBRANCH   7   8
ENDBRANCH   1   7
TORSDOF 5
REMARK  Name = ../refined-set-2016/2p15/2p15_pocket.pdb
REMARK  283 active torsions:
REMARK  status: ('A' for Active; 'I' for Inactive)
REMARK    1  A    between atoms: _1  and  _3
REMARK    2  A    between atoms: _3  and  _4
REMARK    3  A    between atoms: _3  and  _6
REMARK    4  A    between atoms: _6  and  _7
REMARK    5  A    between atoms: _10  and  _12
REMARK    6  A    between atoms: _12  and  _13
REMARK    7  A    between atoms: _12  and  _15
REMARK    8  A    between atoms: _15  and  _16
REMARK    9  A    between atoms: _19  and  _21
REMARK   10  A    between atoms: _21  and  _22
REMARK   11  A    between atoms: _21  and  _24
REMARK   12  A    between atoms: _24  and  _25
REMARK   13  A    between atoms: _31  and  _33
REMARK   14  A    between atoms: _33  and  _34
REMARK   15  A    between atoms: _33  and  _36
REMARK   16  A    between atoms: _36  and  _37
REMARK   17  A    between atoms: _39  and  _41
REMARK   18  A    between atoms: _41  and  _42
REMARK   19  A    between atoms: _41  and  _44
REMARK   20  A    between atoms: _44  and  _45
REMARK   21  A    between atoms: _45  and  _46
REMARK   22  A    between atoms: _49  and  _51
REMARK   23  A    between atoms: _51  and  _52
REMARK   24  A    between atoms: _51  and  _54
REMARK   25  A    between atoms: _54  and  _55
REMARK   26  A    between atoms: _55  and  _56
REMARK   27  A    between atoms: _58  and  _60
REMARK   28  A    between atoms: _60  and  _61
REMARK   29  A    between atoms: _60  and  _63
REMARK   30  A    between atoms: _63  and  _64
REMARK   31  A    between atoms: _64  and  _65
REMARK   32  A    between atoms: _67  and  _69
REMARK   33  A    between atoms: _69  and  _70
REMARK   34  A    between atoms: _69  and  _72
REMARK   35  A    between atoms: _72  and  _73
REMARK   36  A    between atoms: _76  and  _78
REMARK   37  A    between atoms: _78  and  _79
REMARK   38  A    between atoms: _78  and  _81
REMARK   39  A    between atoms: _81  and  _82
REMARK   40  A    between atoms: _85  and  _87
REMARK   41  A    between atoms: _87  and  _88
REMARK   42  A    between atoms: _87  and  _90
REMARK   43  A    between atoms: _90  and  _91
REMARK   44  A    between atoms: _94  and  _96
REMARK   45  A    between atoms: _96  and  _97
REMARK   46  A    between atoms: _96  and  _99
REMARK   47  A    between atoms: _99  and  _100
REMARK   48  A    between atoms: _105  and  _107
REMARK   49  A    between atoms: _107  and  _108
REMARK   50  A    between atoms: _107  and  _110
REMARK   51  A    between atoms: _110  and  _111
REMARK   52  A    between atoms: _114  and  _116
REMARK   53  A    between atoms: _116  and  _117
REMARK   54  A    between atoms: _120  and  _122
REMARK   55  A    between atoms: _122  and  _123
REMARK   56  A    between atoms: _122  and  _125
REMARK   57  A    between atoms: _125  and  _126
REMARK   58  A    between atoms: _129  and  _131
REMARK   59  A    between atoms: _131  and  _132
REMARK   60  A    between atoms: _131  and  _134
REMARK   61  A    between atoms: _134  and  _135
REMARK   62  A    between atoms: _135  and  _136
REMARK   63  A    between atoms: _136  and  _137
REMARK   64  A    between atoms: _146  and  _148
REMARK   65  A    between atoms: _148  and  _149
REMARK   66  A    between atoms: _148  and  _151
REMARK   67  A    between atoms: _151  and  _152
REMARK   68  A    between atoms: _152  and  _153
REMARK   69  A    between atoms: _156  and  _158
REMARK   70  A    between atoms: _158  and  _159
REMARK   71  A    between atoms: _158  and  _161
REMARK   72  A    between atoms: _161  and  _162
REMARK   73  A    between atoms: _165  and  _167
REMARK   74  A    between atoms: _167  and  _168
REMARK   75  A    between atoms: _167  and  _170
REMARK   76  A    between atoms: _170  and  _171
REMARK   77  A    between atoms: _171  and  _172
REMARK   78  A    between atoms: _174  and  _176
REMARK   79  A    between atoms: _176  and  _177
REMARK   80  A    between atoms: _176  and  _179
REMARK   81  A    between atoms: _179  and  _180
REMARK   82  A    between atoms: _190  and  _192
REMARK   83  A    between atoms: _192  and  _193
REMARK   84  A    between atoms: _192  and  _195
REMARK   85  A    between atoms: _195  and  _196
REMARK   86  A    between atoms: _199  and  _201
REMARK   87  A    between atoms: _201  and  _202
REMARK   88  A    between atoms: _201  and  _204
REMARK   89  A    between atoms: _204  and  _205
REMARK   90  A    between atoms: _205  and  _206
REMARK   91  A    between atoms: _209  and  _211
REMARK   92  A    between atoms: _211  and  _212
REMARK   93  A    between atoms: _211  and  _214
REMARK   94  A    between atoms: _214  and  _215
REMARK   95  A    between atoms: _218  and  _220
REMARK   96  A    between atoms: _220  and  _221
REMARK   97  A    between atoms: _220  and  _223
REMARK   98  A    between atoms: _223  and  _224
REMARK   99  A    between atoms: _227  and  _229
REMARK  100  A    between atoms: _229  and  _230
REMARK  101  A    between atoms: _229  and  _232
REMARK  102  A    between atoms: _232  and  _233
REMARK  103  A    between atoms: _233  and  _234
REMARK  104  A    between atoms: _236  and  _238
REMARK  105  A    between atoms: _238  and  _239
REMARK  106  A    between atoms: _238  and  _241
REMARK  107  A    between atoms: _241  and  _242
REMARK  108  A    between atoms: _245  and  _247
REMARK  109  A    between atoms: _247  and  _248
REMARK  110  A    between atoms: _250  and  _252
REMARK  111  A    between atoms: _252  and  _253
REMARK  112  A    between atoms: _252  and  _255
REMARK  113  A    between atoms: _255  and  _256
REMARK  114  A    between atoms: _259  and  _261
REMARK  115  A    between atoms: _261  and  _262
REMARK  116  A    between atoms: _261  and  _264
REMARK  117  A    between atoms: _267  and  _269
REMARK  118  A    between atoms: _269  and  _270
REMARK  119  A    between atoms: _269  and  _272
REMARK  120  A    between atoms: _272  and  _273
REMARK  121  A    between atoms: _273  and  _274
REMARK  122  A    between atoms: _274  and  _275
REMARK  123  A    between atoms: _284  and  _286
REMARK  124  A    between atoms: _286  and  _287
REMARK  125  A    between atoms: _286  and  _289
REMARK  126  A    between atoms: _289  and  _290
REMARK  127  A    between atoms: _293  and  _295
REMARK  128  A    between atoms: _295  and  _296
REMARK  129  A    between atoms: _295  and  _298
REMARK  130  A    between atoms: _298  and  _299
REMARK  131  A    between atoms: _302  and  _304
REMARK  132  A    between atoms: _304  and  _305
REMARK  133  A    between atoms: _304  and  _307
REMARK  134  A    between atoms: _307  and  _308
REMARK  135  A    between atoms: _314  and  _316
REMARK  136  A    between atoms: _316  and  _317
REMARK  137  A    between atoms: _320  and  _322
REMARK  138  A    between atoms: _322  and  _323
REMARK  139  A    between atoms: _322  and  _325
REMARK  140  A    between atoms: _325  and  _326
REMARK  141  A    between atoms: _329  and  _331
REMARK  142  A    between atoms: _331  and  _332
REMARK  143  A    between atoms: _331  and  _334
REMARK  144  A    between atoms: _334  and  _335
REMARK  145  A    between atoms: _338  and  _340
REMARK  146  A    between atoms: _340  and  _341
REMARK  147  A    between atoms: _340  and  _343
REMARK  148  A    between atoms: _343  and  _344
REMARK  149  A    between atoms: _347  and  _349
REMARK  150  A    between atoms: _349  and  _350
REMARK  151  A    between atoms: _349  and  _352
REMARK  152  A    between atoms: _352  and  _353
REMARK  153  A    between atoms: _353  and  _354
REMARK  154  A    between atoms: _359  and  _361
REMARK  155  A    between atoms: _361  and  _362
REMARK  156  A    between atoms: _361  and  _364
REMARK  157  A    between atoms: _364  and  _365
REMARK  158  A    between atoms: _365  and  _366
REMARK  159  A    between atoms: _366  and  _367
REMARK  160  A    between atoms: _367  and  _368
REMARK  161  A    between atoms: _372  and  _374
REMARK  162  A    between atoms: _374  and  _375
REMARK  163  A    between atoms: _374  and  _377
REMARK  164  A    between atoms: _379  and  _381
REMARK  165  A    between atoms: _381  and  _382
REMARK  166  A    between atoms: _381  and  _384
REMARK  167  A    between atoms: _387  and  _389
REMARK  168  A    between atoms: _389  and  _390
REMARK  169  A    between atoms: _389  and  _392
REMARK  170  A    between atoms: _392  and  _393
REMARK  171  A    between atoms: _393  and  _394
REMARK  172  A    between atoms: _397  and  _399
REMARK  173  A    between atoms: _399  and  _400
REMARK  174  A    between atoms: _402  and  _404
REMARK  175  A    between atoms: _404  and  _405
REMARK  176  A    between atoms: _404  and  _407
REMARK  177  A    between atoms: _407  and  _408
REMARK  178  A    between atoms: _408  and  _409
REMARK  179  A    between atoms: _411  and  _413
REMARK  180  A    between atoms: _413  and  _414
REMARK  181  A    between atoms: _413  and  _416
REMARK  182  A    between atoms: _419  and  _421
REMARK  183  A    between atoms: _421  and  _422
REMARK  184  A    between atoms: _421  and  _424
REMARK  185  A    between atoms: _424  and  _425
REMARK  186  A    between atoms: _425  and  _426
REMARK  187  A    between atoms: _429  and  _431
REMARK  188  A    between atoms: _431  and  _432
REMARK  189  A    between atoms: _431  and  _434
REMARK  190  A    between atoms: _434  and  _435
REMARK  191  A    between atoms: _438  and  _440
REMARK  192  A    between atoms: _440  and  _441
REMARK  193  A    between atoms: _440  and  _443
REMARK  194  A    between atoms: _443  and  _444
REMARK  195  A    between atoms: _450  and  _452
REMARK  196  A    between atoms: _452  and  _453
REMARK  197  A    between atoms: _452  and  _455
REMARK  198  A    between atoms: _455  and  _456
REMARK  199  A    between atoms: _459  and  _461
REMARK  200  A    between atoms: _461  and  _462
REMARK  201  A    between atoms: _461  and  _464
REMARK  202  A    between atoms: _464  and  _465
REMARK  203  A    between atoms: _465  and  _466
REMARK  204  A    between atoms: _468  and  _470
REMARK  205  A    between atoms: _470  and  _471
REMARK  206  A    between atoms: _470  and  _473
REMARK  207  A    between atoms: _473  and  _474
REMARK  208  A    between atoms: _477  and  _479
REMARK  209  A    between atoms: _479  and  _480
REMARK  210  A    between atoms: _479  and  _482
REMARK  211  A    between atoms: _482  and  _483
REMARK  212  A    between atoms: _486  and  _488
REMARK  213  A    between atoms: _488  and  _489
REMARK  214  A    between atoms: _488  and  _491
REMARK  215  A    between atoms: _491  and  _492
REMARK  216  A    between atoms: _492  and  _493
REMARK  217  A    between atoms: _495  and  _497
REMARK  218  A    between atoms: _497  and  _498
REMARK  219  A    between atoms: _497  and  _500
REMARK  220  A    between atoms: _500  and  _501
REMARK  221  A    between atoms: _503  and  _505
REMARK  222  A    between atoms: _505  and  _506
REMARK  223  A    between atoms: _505  and  _508
REMARK  224  A    between atoms: _508  and  _509
REMARK  225  A    between atoms: _509  and  _510
REMARK  226  A    between atoms: _510  and  _511
REMARK  227  A    between atoms: _511  and  _512
REMARK  228  A    between atoms: _516  and  _518
REMARK  229  A    between atoms: _518  and  _519
REMARK  230  A    between atoms: _521  and  _523
REMARK  231  A    between atoms: _523  and  _524
REMARK  232  A    between atoms: _523  and  _526
REMARK  233  A    between atoms: _526  and  _527
REMARK  234  A    between atoms: _527  and  _528
REMARK  235  A    between atoms: _530  and  _532
REMARK  236  A    between atoms: _532  and  _533
REMARK  237  A    between atoms: _532  and  _535
REMARK  238  A    between atoms: _535  and  _536
REMARK  239  A    between atoms: _536  and  _537
REMARK  240  A    between atoms: _540  and  _542
REMARK  241  A    between atoms: _542  and  _543
REMARK  242  A    between atoms: _542  and  _545
REMARK  243  A    between atoms: _545  and  _546
REMARK  244  A    between atoms: _551  and  _553
REMARK  245  A    between atoms: _553  and  _554
REMARK  246  A    between atoms: _553  and  _556
REMARK  247  A    between atoms: _556  and  _557
REMARK  248  A    between atoms: _560  and  _562
REMARK  249  A    between atoms: _562  and  _563
REMARK  250  A    between atoms: _562  and  _565
REMARK  251  A    between atoms: _565  and  _566
REMARK  252  A    between atoms: _571  and  _572
REMARK  253  A    between atoms: _574  and  _576
REMARK  254  A    between atoms: _576  and  _577
REMARK  255  A    between atoms: _576  and  _579
REMARK  256  A    between atoms: _579  and  _580
REMARK  257  A    between atoms: _582  and  _584
REMARK  258  A    between atoms: _584  and  _585
REMARK  259  A    between atoms: _584  and  _587
REMARK  260  A    between atoms: _587  and  _588
REMARK  261  A    between atoms: _588  and  _589
REMARK  262  A    between atoms: _591  and  _593
REMARK  263  A    between atoms: _593  and  _594
REMARK  264  A    between atoms: _593  and  _596
REMARK  265  A    between atoms: _596  and  _597
REMARK  266  A    between atoms: _597  and  _598
REMARK  267  A    between atoms: _598  and  _599
REMARK  268  A    between atoms: _599  and  _600
REMARK  269  A    between atoms: _604  and  _606
REMARK  270  A    between atoms: _606  and  _607
REMARK  271  A    between atoms: _606  and  _609
REMARK  272  A    between atoms: _612  and  _614
REMARK  273  A    between atoms: _614  and  _615
REMARK  274  A    between atoms: _614  and  _617
REMARK  275  A    between atoms: _617  and  _618
REMARK  276  A    between atoms: _621  and  _623
REMARK  277  A    between atoms: _623  and  _624
REMARK  278  A    between atoms: _623  and  _626
REMARK  279  A    between atoms: _626  and  _627
REMARK  280  A    between atoms: _630  and  _632
REMARK  281  A    between atoms: _632  and  _633
REMARK  282  A    between atoms: _632  and  _635
REMARK  283  A    between atoms: _635  and  _636
REMARK                            x       y       z     vdW  Elec       q    Type
REMARK                         _______ _______ _______ _____ _____    ______ ____
ROOT
ATOM      1  CA  GLU A   8     -38.871  11.288  29.576  0.00  0.00    +0.149 C 
ENDROOT
BRANCH   1   3
ATOM      2  C   VAL A   7     -38.979  12.435  27.434  0.00  0.00    +0.241 C 
ATOM      3  N   GLU A   8     -39.558  11.632  28.343  0.00  0.00    -0.297 N 
ATOM      4  H   GLU A   8     -40.509  11.252  28.162  0.00  0.00    +0.150 HD
ATOM      5  O   VAL A   7     -37.858  12.899  27.587  0.00  0.00    -0.273 OA
BRANCH   2   6
ATOM      6  CA  VAL A   7     -39.774  12.788  26.164  0.00  0.00    +0.149 C 
BRANCH   6   8
ATOM      7  C   MET A   6     -39.898  10.550  25.219  0.00  0.00    +0.241 C 
ATOM      8  N   VAL A   7     -40.533  11.640  25.639  0.00  0.00    -0.297 N 
ATOM      9  H   VAL A   7     -41.571  11.682  25.597  0.00  0.00    +0.150 HD
ATOM     10  O   MET A   6     -38.686  10.438  25.292  0.00  0.00    -0.273 OA
BRANCH   7  11
ATOM     11  CA  MET A   6     -40.739   9.405  24.638  0.00  0.00    +0.149 C 
BRANCH  11  14
ATOM     12  C   GLY A   5     -42.990   8.932  25.324  0.00  0.00    +0.243 C 
ATOM     13  O   GLY A   5     -42.564   8.195  26.217  0.00  0.00    -0.273 OA
ATOM     14  N   MET A   6     -42.174   9.632  24.542  0.00  0.00    -0.297 N 
ATOM     15  H   MET A   6     -42.555  10.331  23.872  0.00  0.00    +0.150 HD
BRANCH  12  16
ATOM     16  CA  GLY A   5     -44.491   9.062  25.109  0.00  0.00    +0.176 C 
BRANCH  16  18
ATOM     17  C   GLU A   4     -45.098   9.399  22.795  0.00  0.00    +0.241 C 
ATOM     18  N   GLY A   5     -44.995   9.881  24.023  0.00  0.00    -0.295 N 
ATOM     19  H   GLY A   5     -45.280  10.863  24.213  0.00  0.00    +0.150 HD
ATOM     20  O   GLU A   4     -44.601   8.333  22.462  0.00  0.00    -0.273 OA
BRANCH  17  21
ATOM     21  CA  GLU A   4     -45.833  10.268  21.770  0.00  0.00    +0.149 C 
BRANCH  21  24
ATOM     22  C   VAL A   3     -44.045  10.672  20.153  0.00  0.00    +0.241 C 
ATOM     23  O   VAL A   3     -43.390  11.289  20.993  0.00  0.00    -0.273 OA
ATOM     24  N   GLU A   4     -45.242  10.148  20.425  0.00  0.00    -0.297 N 
ATOM     25  H   GLU A   4     -45.765   9.648  19.678  0.00  0.00    +0.150 HD
BRANCH  22  26
ATOM     26  CA  VAL A   3     -43.492  10.476  18.726  0.00  0.00    +0.149 C 
BRANCH  26  28
ATOM     27  C   CYS A   2     -43.673  12.246  16.994  0.00  0.00    +0.242 C 
ATOM     28  N   VAL A   3     -43.124  11.762  18.117  0.00  0.00    -0.297 N 
ATOM     29  H   VAL A   3     -42.392  12.332  18.587  0.00  0.00    +0.150 HD
ATOM     30  O   CYS A   2     -44.552  11.657  16.349  0.00  0.00    -0.273 OA
BRANCH  27  31
ATOM     31  CA  CYS A   2     -43.163  13.622  16.534  0.00  0.00    +0.160 C 
BRANCH  31  34
ATOM     32  C   LYS A   1     -42.830  15.312  18.210  0.00  0.00    +0.238 C 
ATOM     33  O   LYS A   1     -43.925  15.829  17.950  0.00  0.00    -0.274 OA
ATOM     34  N   CYS A   2     -42.371  14.250  17.568  0.00  0.00    -0.297 N 
ATOM     35  H   CYS A   2     -41.435  13.865  17.808  0.00  0.00    +0.150 HD
BRANCH  32  36
ATOM     36  CA  LYS A   1     -41.902  15.901  19.274  0.00  0.00    +0.145 C 
BRANCH  36  37
ATOM     37  N   LYS A   1     -41.807  17.366  19.113  0.00  0.00    -0.238 NA
ATOM     38  H   LYS A   1     -42.185  17.988  19.855  0.00  0.00    +0.142 HD
ENDBRANCH  36  37
BRANCH  36  39
ATOM     39  CB  LYS A   1     -42.343  15.492  20.688  0.00  0.00    +0.026 C 
BRANCH  39  40
ATOM     40  CG  LYS A   1     -43.827  15.647  20.977  0.00  0.00    -0.000 C 
BRANCH  40  41
ATOM     41  CD  LYS A   1     -44.305  14.879  22.217  0.00  0.00    -0.024 C 
BRANCH  41  42
ATOM     42  CE  LYS A   1     -43.589  15.311  23.500  0.00  0.00    -0.086 C 
BRANCH  42  43
ATOM     43  NZ  LYS A   1     -43.547  16.801  23.684  0.00  0.00    +0.380 N 
ATOM     44  HZ1 LYS A   1     -43.050  17.026  24.569  0.00  0.00    -0.089 HD
ATOM     45  HZ2 LYS A   1     -44.518  17.171  23.727  0.00  0.00    -0.089 HD
ATOM     46  HZ3 LYS A   1     -43.044  17.234  22.883  0.00  0.00    -0.089 HD
ENDBRANCH  42  43
ENDBRANCH  41  42
ENDBRANCH  40  41
ENDBRANCH  39  40
ENDBRANCH  36  39
ENDBRANCH  32  36
ENDBRANCH  31  34
BRANCH  31  47
ATOM     47  CB  CYS A   2     -42.363  13.542  15.230  0.00  0.00    +0.098 C 
ATOM     48  SG  CYS A   2     -40.870  12.532  15.366  0.00  0.00    -0.080 S 
ENDBRANCH  31  47
ENDBRANCH  27  31
ENDBRANCH  26  28
BRANCH  26  49
ATOM     49  CB  VAL A   3     -42.260   9.525  18.767  0.00  0.00    +0.027 C 
ATOM     50  CG2 VAL A   3     -42.589   8.251  19.506  0.00  0.00    +0.002 C 
ATOM     51  CG1 VAL A   3     -41.751   9.256  17.348  0.00  0.00    +0.002 C 
ENDBRANCH  26  49
ENDBRANCH  22  26
ENDBRANCH  21  24
BRANCH  21  52
ATOM     52  CB  GLU A   4     -47.331   9.940  21.763  0.00  0.00    +0.041 C 
BRANCH  52  53
ATOM     53  CG  GLU A   4     -48.211  10.951  20.978  0.00  0.00    +0.116 C 
BRANCH  53  54
ATOM     54  CD  GLU A   4     -48.639  12.219  21.757  0.00  0.00    +0.365 C 
ATOM     55  OE2 GLU A   4     -47.779  12.997  22.233  0.00  0.00    -0.246 OA
ATOM     56  OE1 GLU A   4     -49.863  12.450  21.873  0.00  0.00    -0.246 OA
ENDBRANCH  53  54
ENDBRANCH  52  53
ENDBRANCH  21  52
ENDBRANCH  17  21
ENDBRANCH  16  18
ENDBRANCH  12  16
ENDBRANCH  11  14
BRANCH  11  57
ATOM     57  CB  MET A   6     -40.193   8.959  23.278  0.00  0.00    +0.041 C 
BRANCH  57  58
ATOM     58  CG  MET A   6     -40.453   9.933  22.176  0.00  0.00    +0.060 C 
BRANCH  58  59
ATOM     59  SD  MET A   6     -39.692  11.539  22.452  0.00  0.00    -0.139 S 
ATOM     60  CE  MET A   6     -40.190  12.381  20.937  0.00  0.00    +0.069 C 
ENDBRANCH  58  59
ENDBRANCH  57  58
ENDBRANCH  11  57
ENDBRANCH   7  11
ENDBRANCH   6   8
BRANCH   6  61
ATOM     61  CB  VAL A   7     -40.650  14.066  26.361  0.00  0.00    +0.027 C 
ATOM     62  CG2 VAL A   7     -41.823  13.812  27.301  0.00  0.00    +0.002 C 
ATOM     63  CG1 VAL A   7     -39.816  15.244  26.880  0.00  0.00    +0.002 C 
ENDBRANCH   6  61
ENDBRANCH   2   6
ENDBRANCH   1   3
BRANCH   1  64
ATOM     64  C   GLU A   8     -37.643  10.462  29.242  0.00  0.00    +0.241 C 
ATOM     65  O   GLU A   8     -36.591  10.607  29.870  0.00  0.00    -0.273 OA
ATOM     66  N   ILE A   9     -37.792   9.538  28.284  0.00  0.00    -0.297 N 
ATOM     67  H   ILE A   9     -38.711   9.430  27.810  0.00  0.00    +0.150 HD
BRANCH  66  68
ATOM     68  CA  ILE A   9     -36.666   8.676  27.897  0.00  0.00    +0.149 C 
BRANCH  68  69
ATOM     69  C   ILE A   9     -35.599   9.530  27.204  0.00  0.00    +0.241 C 
ATOM     70  O   ILE A   9     -34.437   9.424  27.527  0.00  0.00    -0.273 OA
ATOM     71  N   PHE A  10     -36.022  10.409  26.285  0.00  0.00    -0.297 N 
ATOM     72  H   PHE A  10     -37.027  10.410  26.016  0.00  0.00    +0.150 HD
BRANCH  71  73
ATOM     73  CA  PHE A  10     -35.122  11.363  25.649  0.00  0.00    +0.153 C 
BRANCH  73  74
ATOM     74  C   PHE A  10     -34.275  12.148  26.687  0.00  0.00    +0.241 C 
ATOM     75  N   ASP A  11     -34.938  12.757  27.665  0.00  0.00    -0.297 N 
ATOM     76  H   ASP A  11     -35.975  12.691  27.698  0.00  0.00    +0.150 HD
ATOM     77  O   PHE A  10     -33.042  12.229  26.571  0.00  0.00    -0.273 OA
BRANCH  75  78
ATOM     78  CA  ASP A  11     -34.238  13.511  28.685  0.00  0.00    +0.160 C 
BRANCH  78  79
ATOM     79  C   ASP A  11     -33.302  12.645  29.528  0.00  0.00    +0.241 C 
ATOM     80  O   ASP A  11     -32.233  13.094  29.909  0.00  0.00    -0.273 OA
ATOM     81  N   MET A  12     -33.686  11.403  29.826  0.00  0.00    -0.297 N 
ATOM     82  H   MET A  12     -34.614  11.053  29.513  0.00  0.00    +0.150 HD
BRANCH  81  83
ATOM     83  CA  MET A  12     -32.786  10.526  30.604  0.00  0.00    +0.149 C 
BRANCH  83  84
ATOM     84  C   MET A  12     -31.497  10.184  29.826  0.00  0.00    +0.241 C 
ATOM     85  O   MET A  12     -30.384  10.101  30.387  0.00  0.00    -0.273 OA
ATOM     86  N   LEU A  13     -31.658   9.965  28.526  0.00  0.00    -0.297 N 
ATOM     87  H   LEU A  13     -32.614  10.017  28.119  0.00  0.00    +0.150 HD
BRANCH  86  88
ATOM     88  CA  LEU A  13     -30.517   9.650  27.642  0.00  0.00    +0.149 C 
BRANCH  88  89
ATOM     89  C   LEU A  13     -29.572  10.822  27.562  0.00  0.00    +0.241 C 
ATOM     90  O   LEU A  13     -28.345  10.651  27.633  0.00  0.00    -0.273 OA
ATOM     91  N   LEU A  14     -30.141  12.020  27.414  0.00  0.00    -0.298 N 
ATOM     92  H   LEU A  14     -31.173  12.081  27.304  0.00  0.00    +0.150 HD
BRANCH  91  93
ATOM     93  CA  LEU A  14     -29.349  13.248  27.403  0.00  0.00    +0.137 C 
BRANCH  93  94
ATOM     94  C   LEU A  14     -28.586  13.437  28.719  0.00  0.00    +0.227 C 
ATOM     95  O   LEU A  14     -27.419  13.841  28.723  0.00  0.00    -0.286 OA
ENDBRANCH  93  94
BRANCH  93  96
ATOM     96  CB  LEU A  14     -30.246  14.463  27.174  0.00  0.00    +0.028 C 
BRANCH  96  97
ATOM     97  CG  LEU A  14     -30.736  14.702  25.737  0.00  0.00    +0.002 C 
ATOM     98  CD2 LEU A  14     -31.642  15.928  25.700  0.00  0.00    +0.000 C 
ATOM     99  CD1 LEU A  14     -29.534  14.934  24.804  0.00  0.00    +0.000 C 
ENDBRANCH  96  97
ENDBRANCH  93  96
ENDBRANCH  91  93
ENDBRANCH  88  89
BRANCH  88 100
ATOM    100  CB  LEU A  13     -31.028   9.264  26.239  0.00  0.00    +0.029 C 
BRANCH 100 101
ATOM    101  CG  LEU A  13     -31.624   7.846  26.201  0.00  0.00    +0.002 C 
ATOM    102  CD2 LEU A  13     -30.524   6.795  26.316  0.00  0.00    +0.000 C 
ATOM    103  CD1 LEU A  13     -32.370   7.607  24.899  0.00  0.00    +0.000 C 
ENDBRANCH 100 101
ENDBRANCH  88 100
ENDBRANCH  86  88
ENDBRANCH  83  84
BRANCH  83 104
ATOM    104  CB  MET A  12     -33.513   9.238  30.980  0.00  0.00    +0.041 C 
BRANCH 104 105
ATOM    105  CG  MET A  12     -34.572   9.415  32.077  0.00  0.00    +0.060 C 
BRANCH 105 106
ATOM    106  SD  MET A  12     -35.261   7.823  32.636  0.00  0.00    -0.139 S 
ATOM    107  CE  MET A  12     -36.027   7.202  31.192  0.00  0.00    +0.069 C 
ENDBRANCH 105 106
ENDBRANCH 104 105
ENDBRANCH  83 104
ENDBRANCH  81  83
ENDBRANCH  78  79
BRANCH  78 108
ATOM    108  CB  ASP A  11     -35.243  14.189  29.607  0.00  0.00    +0.143 C 
BRANCH 108 109
ATOM    109  CG  ASP A  11     -35.956  15.344  28.946  0.00  0.00    +0.367 C 
ATOM    110  OD2 ASP A  11     -37.019  15.695  29.487  0.00  0.00    -0.246 OA
ATOM    111  OD1 ASP A  11     -35.460  15.911  27.928  0.00  0.00    -0.246 OA
ENDBRANCH 108 109
ENDBRANCH  78 108
ENDBRANCH  75  78
ENDBRANCH  73  74
BRANCH  73 112
ATOM    112  CB  PHE A  10     -35.926  12.358  24.785  0.00  0.00    +0.055 C 
BRANCH 112 113
ATOM    113  CG  PHE A  10     -35.104  13.016  23.707  0.00  0.00    -0.020 A 
ATOM    114  CD2 PHE A  10     -34.080  13.876  24.029  0.00  0.00    -0.004 A 
ATOM    115  CE2 PHE A  10     -33.300  14.449  23.049  0.00  0.00    -0.000 A 
ATOM    116  CZ  PHE A  10     -33.548  14.175  21.713  0.00  0.00    -0.000 A 
ATOM    117  CE1 PHE A  10     -34.584  13.332  21.371  0.00  0.00    -0.000 A 
ATOM    118  CD1 PHE A  10     -35.341  12.739  22.375  0.00  0.00    -0.004 A 
ENDBRANCH 112 113
ENDBRANCH  73 112
ENDBRANCH  71  73
ENDBRANCH  68  69
BRANCH  68 119
ATOM    119  CB  ILE A   9     -37.111   7.489  27.014  0.00  0.00    +0.027 C 
ATOM    120  CG2 ILE A   9     -35.878   6.687  26.515  0.00  0.00    +0.002 C 
BRANCH 119 121
ATOM    121  CG1 ILE A   9     -38.071   6.576  27.801  0.00  0.00    +0.002 C 
ATOM    122  CD1 ILE A   9     -38.943   5.669  26.875  0.00  0.00    +0.000 C 
ENDBRANCH 119 121
ENDBRANCH  68 119
ENDBRANCH  66  68
ENDBRANCH   1  64
BRANCH   1 123
ATOM    123  CB  GLU A   8     -39.788  10.515  30.539  0.00  0.00    +0.041 C 
BRANCH 123 124
ATOM    124  CG  GLU A   8     -41.200  11.084  30.651  0.00  0.00    +0.116 C 
BRANCH 124 125
ATOM    125  CD  GLU A   8     -42.179  10.433  29.667  0.00  0.00    +0.365 C 
ATOM    126  OE2 GLU A   8     -42.577   9.264  29.902  0.00  0.00    -0.246 OA
ATOM    127  OE1 GLU A   8     -42.557  11.079  28.669  0.00  0.00    -0.246 OA
ENDBRANCH 124 125
ENDBRANCH 123 124
ENDBRANCH   1 123
TORSDOF 58
REMARK  Name = ../refined-set-2016/2p15/2p15_pocket.pdb
REMARK  283 active torsions:
REMARK  status: ('A' for Active; 'I' for Inactive)
REMARK    1  A    between atoms: _1  and  _3
REMARK    2  A    between atoms: _3  and  _4
REMARK    3  A    between atoms: _3  and  _6
REMARK    4  A    between atoms: _6  and  _7
REMARK    5  A    between atoms: _10  and  _12
REMARK    6  A    between atoms: _12  and  _13
REMARK    7  A    between atoms: _12  and  _15
REMARK    8  A    between atoms: _15  and  _16
REMARK    9  A    between atoms: _19  and  _21
REMARK   10  A    between atoms: _21  and  _22
REMARK   11  A    between atoms: _21  and  _24
REMARK   12  A    between atoms: _24  and  _25
REMARK   13  A    between atoms: _31  and  _33
REMARK   14  A    between atoms: _33  and  _34
REMARK   15  A    between atoms: _33  and  _36
REMARK   16  A    between atoms: _36  and  _37
REMARK   17  A    between atoms: _39  and  _41
REMARK   18  A    between atoms: _41  and  _42
REMARK   19  A    between atoms: _41  and  _44
REMARK   20  A    between atoms: _44  and  _45
REMARK   21  A    between atoms: _45  and  _46
REMARK   22  A    between atoms: _49  and  _51
REMARK   23  A    between atoms: _51  and  _52
REMARK   24  A    between atoms: _51  and  _54
REMARK   25  A    between atoms: _54  and  _55
REMARK   26  A    between atoms: _55  and  _56
REMARK   27  A    between atoms: _58  and  _60
REMARK   28  A    between atoms: _60  and  _61
REMARK   29  A    between atoms: _60  and  _63
REMARK   30  A    between atoms: _63  and  _64
REMARK   31  A    between atoms: _64  and  _65
REMARK   32  A    between atoms: _67  and  _69
REMARK   33  A    between atoms: _69  and  _70
REMARK   34  A    between atoms: _69  and  _72
REMARK   35  A    between atoms: _72  and  _73
REMARK   36  A    between atoms: _76  and  _78
REMARK   37  A    between atoms: _78  and  _79
REMARK   38  A    between atoms: _78  and  _81
REMARK   39  A    between atoms: _81  and  _82
REMARK   40  A    between atoms: _85  and  _87
REMARK   41  A    between atoms: _87  and  _88
REMARK   42  A    between atoms: _87  and  _90
REMARK   43  A    between atoms: _90  and  _91
REMARK   44  A    between atoms: _94  and  _96
REMARK   45  A    between atoms: _96  and  _97
REMARK   46  A    between atoms: _96  and  _99
REMARK   47  A    between atoms: _99  and  _100
REMARK   48  A    between atoms: _105  and  _107
REMARK   49  A    between atoms: _107  and  _108
REMARK   50  A    between atoms: _107  and  _110
REMARK   51  A    between atoms: _110  and  _111
REMARK   52  A    between atoms: _114  and  _116
REMARK   53  A    between atoms: _116  and  _117
REMARK   54  A    between atoms: _120  and  _122
REMARK   55  A    between atoms: _122  and  _123
REMARK   56  A    between atoms: _122  and  _125
REMARK   57  A    between atoms: _125  and  _126
REMARK   58  A    between atoms: _129  and  _131
REMARK   59  A    between atoms: _131  and  _132
REMARK   60  A    between atoms: _131  and  _134
REMARK   61  A    between atoms: _134  and  _135
REMARK   62  A    between atoms: _135  and  _136
REMARK   63  A    between atoms: _136  and  _137
REMARK   64  A    between atoms: _146  and  _148
REMARK   65  A    between atoms: _148  and  _149
REMARK   66  A    between atoms: _148  and  _151
REMARK   67  A    between atoms: _151  and  _152
REMARK   68  A    between atoms: _152  and  _153
REMARK   69  A    between atoms: _156  and  _158
REMARK   70  A    between atoms: _158  and  _159
REMARK   71  A    between atoms: _158  and  _161
REMARK   72  A    between atoms: _161  and  _162
REMARK   73  A    between atoms: _165  and  _167
REMARK   74  A    between atoms: _167  and  _168
REMARK   75  A    between atoms: _167  and  _170
REMARK   76  A    between atoms: _170  and  _171
REMARK   77  A    between atoms: _171  and  _172
REMARK   78  A    between atoms: _174  and  _176
REMARK   79  A    between atoms: _176  and  _177
REMARK   80  A    between atoms: _176  and  _179
REMARK   81  A    between atoms: _179  and  _180
REMARK   82  A    between atoms: _190  and  _192
REMARK   83  A    between atoms: _192  and  _193
REMARK   84  A    between atoms: _192  and  _195
REMARK   85  A    between atoms: _195  and  _196
REMARK   86  A    between atoms: _199  and  _201
REMARK   87  A    between atoms: _201  and  _202
REMARK   88  A    between atoms: _201  and  _204
REMARK   89  A    between atoms: _204  and  _205
REMARK   90  A    between atoms: _205  and  _206
REMARK   91  A    between atoms: _209  and  _211
REMARK   92  A    between atoms: _211  and  _212
REMARK   93  A    between atoms: _211  and  _214
REMARK   94  A    between atoms: _214  and  _215
REMARK   95  A    between atoms: _218  and  _220
REMARK   96  A    between atoms: _220  and  _221
REMARK   97  A    between atoms: _220  and  _223
REMARK   98  A    between atoms: _223  and  _224
REMARK   99  A    between atoms: _227  and  _229
REMARK  100  A    between atoms: _229  and  _230
REMARK  101  A    between atoms: _229  and  _232
REMARK  102  A    between atoms: _232  and  _233
REMARK  103  A    between atoms: _233  and  _234
REMARK  104  A    between atoms: _236  and  _238
REMARK  105  A    between atoms: _238  and  _239
REMARK  106  A    between atoms: _238  and  _241
REMARK  107  A    between atoms: _241  and  _242
REMARK  108  A    between atoms: _245  and  _247
REMARK  109  A    between atoms: _247  and  _248
REMARK  110  A    between atoms: _250  and  _252
REMARK  111  A    between atoms: _252  and  _253
REMARK  112  A    between atoms: _252  and  _255
REMARK  113  A    between atoms: _255  and  _256
REMARK  114  A    between atoms: _259  and  _261
REMARK  115  A    between atoms: _261  and  _262
REMARK  116  A    between atoms: _261  and  _264
REMARK  117  A    between atoms: _267  and  _269
REMARK  118  A    between atoms: _269  and  _270
REMARK  119  A    between atoms: _269  and  _272
REMARK  120  A    between atoms: _272  and  _273
REMARK  121  A    between atoms: _273  and  _274
REMARK  122  A    between atoms: _274  and  _275
REMARK  123  A    between atoms: _284  and  _286
REMARK  124  A    between atoms: _286  and  _287
REMARK  125  A    between atoms: _286  and  _289
REMARK  126  A    between atoms: _289  and  _290
REMARK  127  A    between atoms: _293  and  _295
REMARK  128  A    between atoms: _295  and  _296
REMARK  129  A    between atoms: _295  and  _298
REMARK  130  A    between atoms: _298  and  _299
REMARK  131  A    between atoms: _302  and  _304
REMARK  132  A    between atoms: _304  and  _305
REMARK  133  A    between atoms: _304  and  _307
REMARK  134  A    between atoms: _307  and  _308
REMARK  135  A    between atoms: _314  and  _316
REMARK  136  A    between atoms: _316  and  _317
REMARK  137  A    between atoms: _320  and  _322
REMARK  138  A    between atoms: _322  and  _323
REMARK  139  A    between atoms: _322  and  _325
REMARK  140  A    between atoms: _325  and  _326
REMARK  141  A    between atoms: _329  and  _331
REMARK  142  A    between atoms: _331  and  _332
REMARK  143  A    between atoms: _331  and  _334
REMARK  144  A    between atoms: _334  and  _335
REMARK  145  A    between atoms: _338  and  _340
REMARK  146  A    between atoms: _340  and  _341
REMARK  147  A    between atoms: _340  and  _343
REMARK  148  A    between atoms: _343  and  _344
REMARK  149  A    between atoms: _347  and  _349
REMARK  150  A    between atoms: _349  and  _350
REMARK  151  A    between atoms: _349  and  _352
REMARK  152  A    between atoms: _352  and  _353
REMARK  153  A    between atoms: _353  and  _354
REMARK  154  A    between atoms: _359  and  _361
REMARK  155  A    between atoms: _361  and  _362
REMARK  156  A    between atoms: _361  and  _364
REMARK  157  A    between atoms: _364  and  _365
REMARK  158  A    between atoms: _365  and  _366
REMARK  159  A    between atoms: _366  and  _367
REMARK  160  A    between atoms: _367  and  _368
REMARK  161  A    between atoms: _372  and  _374
REMARK  162  A    between atoms: _374  and  _375
REMARK  163  A    between atoms: _374  and  _377
REMARK  164  A    between atoms: _379  and  _381
REMARK  165  A    between atoms: _381  and  _382
REMARK  166  A    between atoms: _381  and  _384
REMARK  167  A    between atoms: _387  and  _389
REMARK  168  A    between atoms: _389  and  _390
REMARK  169  A    between atoms: _389  and  _392
REMARK  170  A    between atoms: _392  and  _393
REMARK  171  A    between atoms: _393  and  _394
REMARK  172  A    between atoms: _397  and  _399
REMARK  173  A    between atoms: _399  and  _400
REMARK  174  A    between atoms: _402  and  _404
REMARK  175  A    between atoms: _404  and  _405
REMARK  176  A    between atoms: _404  and  _407
REMARK  177  A    between atoms: _407  and  _408
REMARK  178  A    between atoms: _408  and  _409
REMARK  179  A    between atoms: _411  and  _413
REMARK  180  A    between atoms: _413  and  _414
REMARK  181  A    between atoms: _413  and  _416
REMARK  182  A    between atoms: _419  and  _421
REMARK  183  A    between atoms: _421  and  _422
REMARK  184  A    between atoms: _421  and  _424
REMARK  185  A    between atoms: _424  and  _425
REMARK  186  A    between atoms: _425  and  _426
REMARK  187  A    between atoms: _429  and  _431
REMARK  188  A    between atoms: _431  and  _432
REMARK  189  A    between atoms: _431  and  _434
REMARK  190  A    between atoms: _434  and  _435
REMARK  191  A    between atoms: _438  and  _440
REMARK  192  A    between atoms: _440  and  _441
REMARK  193  A    between atoms: _440  and  _443
REMARK  194  A    between atoms: _443  and  _444
REMARK  195  A    between atoms: _450  and  _452
REMARK  196  A    between atoms: _452  and  _453
REMARK  197  A    between atoms: _452  and  _455
REMARK  198  A    between atoms: _455  and  _456
REMARK  199  A    between atoms: _459  and  _461
REMARK  200  A    between atoms: _461  and  _462
REMARK  201  A    between atoms: _461  and  _464
REMARK  202  A    between atoms: _464  and  _465
REMARK  203  A    between atoms: _465  and  _466
REMARK  204  A    between atoms: _468  and  _470
REMARK  205  A    between atoms: _470  and  _471
REMARK  206  A    between atoms: _470  and  _473
REMARK  207  A    between atoms: _473  and  _474
REMARK  208  A    between atoms: _477  and  _479
REMARK  209  A    between atoms: _479  and  _480
REMARK  210  A    between atoms: _479  and  _482
REMARK  211  A    between atoms: _482  and  _483
REMARK  212  A    between atoms: _486  and  _488
REMARK  213  A    between atoms: _488  and  _489
REMARK  214  A    between atoms: _488  and  _491
REMARK  215  A    between atoms: _491  and  _492
REMARK  216  A    between atoms: _492  and  _493
REMARK  217  A    between atoms: _495  and  _497
REMARK  218  A    between atoms: _497  and  _498
REMARK  219  A    between atoms: _497  and  _500
REMARK  220  A    between atoms: _500  and  _501
REMARK  221  A    between atoms: _503  and  _505
REMARK  222  A    between atoms: _505  and  _506
REMARK  223  A    between atoms: _505  and  _508
REMARK  224  A    between atoms: _508  and  _509
REMARK  225  A    between atoms: _509  and  _510
REMARK  226  A    between atoms: _510  and  _511
REMARK  227  A    between atoms: _511  and  _512
REMARK  228  A    between atoms: _516  and  _518
REMARK  229  A    between atoms: _518  and  _519
REMARK  230  A    between atoms: _521  and  _523
REMARK  231  A    between atoms: _523  and  _524
REMARK  232  A    between atoms: _523  and  _526
REMARK  233  A    between atoms: _526  and  _527
REMARK  234  A    between atoms: _527  and  _528
REMARK  235  A    between atoms: _530  and  _532
REMARK  236  A    between atoms: _532  and  _533
REMARK  237  A    between atoms: _532  and  _535
REMARK  238  A    between atoms: _535  and  _536
REMARK  239  A    between atoms: _536  and  _537
REMARK  240  A    between atoms: _540  and  _542
REMARK  241  A    between atoms: _542  and  _543
REMARK  242  A    between atoms: _542  and  _545
REMARK  243  A    between atoms: _545  and  _546
REMARK  244  A    between atoms: _551  and  _553
REMARK  245  A    between atoms: _553  and  _554
REMARK  246  A    between atoms: _553  and  _556
REMARK  247  A    between atoms: _556  and  _557
REMARK  248  A    between atoms: _560  and  _562
REMARK  249  A    between atoms: _562  and  _563
REMARK  250  A    between atoms: _562  and  _565
REMARK  251  A    between atoms: _565  and  _566
REMARK  252  A    between atoms: _571  and  _572
REMARK  253  A    between atoms: _574  and  _576
REMARK  254  A    between atoms: _576  and  _577
REMARK  255  A    between atoms: _576  and  _579
REMARK  256  A    between atoms: _579  and  _580
REMARK  257  A    between atoms: _582  and  _584
REMARK  258  A    between atoms: _584  and  _585
REMARK  259  A    between atoms: _584  and  _587
REMARK  260  A    between atoms: _587  and  _588
REMARK  261  A    between atoms: _588  and  _589
REMARK  262  A    between atoms: _591  and  _593
REMARK  263  A    between atoms: _593  and  _594
REMARK  264  A    between atoms: _593  and  _596
REMARK  265  A    between atoms: _596  and  _597
REMARK  266  A    between atoms: _597  and  _598
REMARK  267  A    between atoms: _598  and  _599
REMARK  268  A    between atoms: _599  and  _600
REMARK  269  A    between atoms: _604  and  _606
REMARK  270  A    between atoms: _606  and  _607
REMARK  271  A    between atoms: _606  and  _609
REMARK  272  A    between atoms: _612  and  _614
REMARK  273  A    between atoms: _614  and  _615
REMARK  274  A    between atoms: _614  and  _617
REMARK  275  A    between atoms: _617  and  _618
REMARK  276  A    between atoms: _621  and  _623
REMARK  277  A    between atoms: _623  and  _624
REMARK  278  A    between atoms: _623  and  _626
REMARK  279  A    between atoms: _626  and  _627
REMARK  280  A    between atoms: _630  and  _632
REMARK  281  A    between atoms: _632  and  _633
REMARK  282  A    between atoms: _632  and  _635
REMARK  283  A    between atoms: _635  and  _636
REMARK                            x       y       z     vdW  Elec       q    Type
REMARK                         _______ _______ _______ _____ _____    ______ ____
ROOT
ATOM      1  C   MET A   1     -34.298   2.522  29.887  0.00  0.00    +0.238 C 
ATOM      2  N   SER A   2     -33.556   1.416  29.889  0.00  0.00    -0.296 N 
ATOM      3  H   SER A   2     -32.699   1.391  30.477  0.00  0.00    +0.150 HD
ATOM      4  O   MET A   1     -35.261   2.702  29.113  0.00  0.00    -0.274 OA
ENDROOT
BRANCH   1   5
ATOM      5  CA  MET A   1     -33.844   3.620  30.860  0.00  0.00    +0.146 C 
BRANCH   5   6
ATOM      6  N   MET A   1     -33.437   3.135  32.195  0.00  0.00    -0.238 NA
ATOM      7  H   MET A   1     -32.461   3.280  32.524  0.00  0.00    +0.142 HD
ENDBRANCH   5   6
BRANCH   5   8
ATOM      8  CB  MET A   1     -32.684   4.400  30.236  0.00  0.00    +0.038 C 
BRANCH   8   9
ATOM      9  CG  MET A   1     -32.326   5.690  30.997  0.00  0.00    +0.060 C 
BRANCH   9  10
ATOM     10  SD  MET A   1     -31.252   6.719  29.941  0.00  0.00    -0.139 S 
ATOM     11  CE  MET A   1     -29.709   5.783  30.085  0.00  0.00    +0.069 C 
ENDBRANCH   9  10
ENDBRANCH   8   9
ENDBRANCH   5   8
ENDBRANCH   1   5
BRANCH   2  12
ATOM     12  CA  SER A   2     -33.904   0.216  29.084  0.00  0.00    +0.166 C 
BRANCH  12  13
ATOM     13  CB  SER A   2     -35.311  -0.272  29.449  0.00  0.00    +0.229 C 
ATOM     14  OG  SER A   2     -36.096  -0.593  28.565  0.00  0.00    -0.286 OA
ENDBRANCH  12  13
BRANCH  12  15
ATOM     15  C   SER A   2     -32.931  -0.925  29.365  0.00  0.00    +0.165 C 
BRANCH  15  16
ATOM     16  O   SER A   2     -33.252  -2.081  28.570  0.00  0.00    -0.380 OA
ATOM     17  H   SER A   2     -32.608  -2.806  28.769  0.00  0.00    +0.211 HD
ENDBRANCH  15  16
ENDBRANCH  12  15
ENDBRANCH   2  12
TORSDOF 9
REMARK  Name = ../refined-set-2016/2p15/2p15_pocket.pdb
REMARK  283 active torsions:
REMARK  status: ('A' for Active; 'I' for Inactive)
REMARK    1  A    between atoms: _1  and  _3
REMARK    2  A    between atoms: _3  and  _4
REMARK    3  A    between atoms: _3  and  _6
REMARK    4  A    between atoms: _6  and  _7
REMARK    5  A    between atoms: _10  and  _12
REMARK    6  A    between atoms: _12  and  _13
REMARK    7  A    between atoms: _12  and  _15
REMARK    8  A    between atoms: _15  and  _16
REMARK    9  A    between atoms: _19  and  _21
REMARK   10  A    between atoms: _21  and  _22
REMARK   11  A    between atoms: _21  and  _24
REMARK   12  A    between atoms: _24  and  _25
REMARK   13  A    between atoms: _31  and  _33
REMARK   14  A    between atoms: _33  and  _34
REMARK   15  A    between atoms: _33  and  _36
REMARK   16  A    between atoms: _36  and  _37
REMARK   17  A    between atoms: _39  and  _41
REMARK   18  A    between atoms: _41  and  _42
REMARK   19  A    between atoms: _41  and  _44
REMARK   20  A    between atoms: _44  and  _45
REMARK   21  A    between atoms: _45  and  _46
REMARK   22  A    between atoms: _49  and  _51
REMARK   23  A    between atoms: _51  and  _52
REMARK   24  A    between atoms: _51  and  _54
REMARK   25  A    between atoms: _54  and  _55
REMARK   26  A    between atoms: _55  and  _56
REMARK   27  A    between atoms: _58  and  _60
REMARK   28  A    between atoms: _60  and  _61
REMARK   29  A    between atoms: _60  and  _63
REMARK   30  A    between atoms: _63  and  _64
REMARK   31  A    between atoms: _64  and  _65
REMARK   32  A    between atoms: _67  and  _69
REMARK   33  A    between atoms: _69  and  _70
REMARK   34  A    between atoms: _69  and  _72
REMARK   35  A    between atoms: _72  and  _73
REMARK   36  A    between atoms: _76  and  _78
REMARK   37  A    between atoms: _78  and  _79
REMARK   38  A    between atoms: _78  and  _81
REMARK   39  A    between atoms: _81  and  _82
REMARK   40  A    between atoms: _85  and  _87
REMARK   41  A    between atoms: _87  and  _88
REMARK   42  A    between atoms: _87  and  _90
REMARK   43  A    between atoms: _90  and  _91
REMARK   44  A    between atoms: _94  and  _96
REMARK   45  A    between atoms: _96  and  _97
REMARK   46  A    between atoms: _96  and  _99
REMARK   47  A    between atoms: _99  and  _100
REMARK   48  A    between atoms: _105  and  _107
REMARK   49  A    between atoms: _107  and  _108
REMARK   50  A    between atoms: _107  and  _110
REMARK   51  A    between atoms: _110  and  _111
REMARK   52  A    between atoms: _114  and  _116
REMARK   53  A    between atoms: _116  and  _117
REMARK   54  A    between atoms: _120  and  _122
REMARK   55  A    between atoms: _122  and  _123
REMARK   56  A    between atoms: _122  and  _125
REMARK   57  A    between atoms: _125  and  _126
REMARK   58  A    between atoms: _129  and  _131
REMARK   59  A    between atoms: _131  and  _132
REMARK   60  A    between atoms: _131  and  _134
REMARK   61  A    between atoms: _134  and  _135
REMARK   62  A    between atoms: _135  and  _136
REMARK   63  A    between atoms: _136  and  _137
REMARK   64  A    between atoms: _146  and  _148
REMARK   65  A    between atoms: _148  and  _149
REMARK   66  A    between atoms: _148  and  _151
REMARK   67  A    between atoms: _151  and  _152
REMARK   68  A    between atoms: _152  and  _153
REMARK   69  A    between atoms: _156  and  _158
REMARK   70  A    between atoms: _158  and  _159
REMARK   71  A    between atoms: _158  and  _161
REMARK   72  A    between atoms: _161  and  _162
REMARK   73  A    between atoms: _165  and  _167
REMARK   74  A    between atoms: _167  and  _168
REMARK   75  A    between atoms: _167  and  _170
REMARK   76  A    between atoms: _170  and  _171
REMARK   77  A    between atoms: _171  and  _172
REMARK   78  A    between atoms: _174  and  _176
REMARK   79  A    between atoms: _176  and  _177
REMARK   80  A    between atoms: _176  and  _179
REMARK   81  A    between atoms: _179  and  _180
REMARK   82  A    between atoms: _190  and  _192
REMARK   83  A    between atoms: _192  and  _193
REMARK   84  A    between atoms: _192  and  _195
REMARK   85  A    between atoms: _195  and  _196
REMARK   86  A    between atoms: _199  and  _201
REMARK   87  A    between atoms: _201  and  _202
REMARK   88  A    between atoms: _201  and  _204
REMARK   89  A    between atoms: _204  and  _205
REMARK   90  A    between atoms: _205  and  _206
REMARK   91  A    between atoms: _209  and  _211
REMARK   92  A    between atoms: _211  and  _212
REMARK   93  A    between atoms: _211  and  _214
REMARK   94  A    between atoms: _214  and  _215
REMARK   95  A    between atoms: _218  and  _220
REMARK   96  A    between atoms: _220  and  _221
REMARK   97  A    between atoms: _220  and  _223
REMARK   98  A    between atoms: _223  and  _224
REMARK   99  A    between atoms: _227  and  _229
REMARK  100  A    between atoms: _229  and  _230
REMARK  101  A    between atoms: _229  and  _232
REMARK  102  A    between atoms: _232  and  _233
REMARK  103  A    between atoms: _233  and  _234
REMARK  104  A    between atoms: _236  and  _238
REMARK  105  A    between atoms: _238  and  _239
REMARK  106  A    between atoms: _238  and  _241
REMARK  107  A    between atoms: _241  and  _242
REMARK  108  A    between atoms: _245  and  _247
REMARK  109  A    between atoms: _247  and  _248
REMARK  110  A    between atoms: _250  and  _252
REMARK  111  A    between atoms: _252  and  _253
REMARK  112  A    between atoms: _252  and  _255
REMARK  113  A    between atoms: _255  and  _256
REMARK  114  A    between atoms: _259  and  _261
REMARK  115  A    between atoms: _261  and  _262
REMARK  116  A    between atoms: _261  and  _264
REMARK  117  A    between atoms: _267  and  _269
REMARK  118  A    between atoms: _269  and  _270
REMARK  119  A    between atoms: _269  and  _272
REMARK  120  A    between atoms: _272  and  _273
REMARK  121  A    between atoms: _273  and  _274
REMARK  122  A    between atoms: _274  and  _275
REMARK  123  A    between atoms: _284  and  _286
REMARK  124  A    between atoms: _286  and  _287
REMARK  125  A    between atoms: _286  and  _289
REMARK  126  A    between atoms: _289  and  _290
REMARK  127  A    between atoms: _293  and  _295
REMARK  128  A    between atoms: _295  and  _296
REMARK  129  A    between atoms: _295  and  _298
REMARK  130  A    between atoms: _298  and  _299
REMARK  131  A    between atoms: _302  and  _304
REMARK  132  A    between atoms: _304  and  _305
REMARK  133  A    between atoms: _304  and  _307
REMARK  134  A    between atoms: _307  and  _308
REMARK  135  A    between atoms: _314  and  _316
REMARK  136  A    between atoms: _316  and  _317
REMARK  137  A    between atoms: _320  and  _322
REMARK  138  A    between atoms: _322  and  _323
REMARK  139  A    between atoms: _322  and  _325
REMARK  140  A    between atoms: _325  and  _326
REMARK  141  A    between atoms: _329  and  _331
REMARK  142  A    between atoms: _331  and  _332
REMARK  143  A    between atoms: _331  and  _334
REMARK  144  A    between atoms: _334  and  _335
REMARK  145  A    between atoms: _338  and  _340
REMARK  146  A    between atoms: _340  and  _341
REMARK  147  A    between atoms: _340  and  _343
REMARK  148  A    between atoms: _343  and  _344
REMARK  149  A    between atoms: _347  and  _349
REMARK  150  A    between atoms: _349  and  _350
REMARK  151  A    between atoms: _349  and  _352
REMARK  152  A    between atoms: _352  and  _353
REMARK  153  A    between atoms: _353  and  _354
REMARK  154  A    between atoms: _359  and  _361
REMARK  155  A    between atoms: _361  and  _362
REMARK  156  A    between atoms: _361  and  _364
REMARK  157  A    between atoms: _364  and  _365
REMARK  158  A    between atoms: _365  and  _366
REMARK  159  A    between atoms: _366  and  _367
REMARK  160  A    between atoms: _367  and  _368
REMARK  161  A    between atoms: _372  and  _374
REMARK  162  A    between atoms: _374  and  _375
REMARK  163  A    between atoms: _374  and  _377
REMARK  164  A    between atoms: _379  and  _381
REMARK  165  A    between atoms: _381  and  _382
REMARK  166  A    between atoms: _381  and  _384
REMARK  167  A    between atoms: _387  and  _389
REMARK  168  A    between atoms: _389  and  _390
REMARK  169  A    between atoms: _389  and  _392
REMARK  170  A    between atoms: _392  and  _393
REMARK  171  A    between atoms: _393  and  _394
REMARK  172  A    between atoms: _397  and  _399
REMARK  173  A    between atoms: _399  and  _400
REMARK  174  A    between atoms: _402  and  _404
REMARK  175  A    between atoms: _404  and  _405
REMARK  176  A    between atoms: _404  and  _407
REMARK  177  A    between atoms: _407  and  _408
REMARK  178  A    between atoms: _408  and  _409
REMARK  179  A    between atoms: _411  and  _413
REMARK  180  A    between atoms: _413  and  _414
REMARK  181  A    between atoms: _413  and  _416
REMARK  182  A    between atoms: _419  and  _421
REMARK  183  A    between atoms: _421  and  _422
REMARK  184  A    between atoms: _421  and  _424
REMARK  185  A    between atoms: _424  and  _425
REMARK  186  A    between atoms: _425  and  _426
REMARK  187  A    between atoms: _429  and  _431
REMARK  188  A    between atoms: _431  and  _432
REMARK  189  A    between atoms: _431  and  _434
REMARK  190  A    between atoms: _434  and  _435
REMARK  191  A    between atoms: _438  and  _440
REMARK  192  A    between atoms: _440  and  _441
REMARK  193  A    between atoms: _440  and  _443
REMARK  194  A    between atoms: _443  and  _444
REMARK  195  A    between atoms: _450  and  _452
REMARK  196  A    between atoms: _452  and  _453
REMARK  197  A    between atoms: _452  and  _455
REMARK  198  A    between atoms: _455  and  _456
REMARK  199  A    between atoms: _459  and  _461
REMARK  200  A    between atoms: _461  and  _462
REMARK  201  A    between atoms: _461  and  _464
REMARK  202  A    between atoms: _464  and  _465
REMARK  203  A    between atoms: _465  and  _466
REMARK  204  A    between atoms: _468  and  _470
REMARK  205  A    between atoms: _470  and  _471
REMARK  206  A    between atoms: _470  and  _473
REMARK  207  A    between atoms: _473  and  _474
REMARK  208  A    between atoms: _477  and  _479
REMARK  209  A    between atoms: _479  and  _480
REMARK  210  A    between atoms: _479  and  _482
REMARK  211  A    between atoms: _482  and  _483
REMARK  212  A    between atoms: _486  and  _488
REMARK  213  A    between atoms: _488  and  _489
REMARK  214  A    between atoms: _488  and  _491
REMARK  215  A    between atoms: _491  and  _492
REMARK  216  A    between atoms: _492  and  _493
REMARK  217  A    between atoms: _495  and  _497
REMARK  218  A    between atoms: _497  and  _498
REMARK  219  A    between atoms: _497  and  _500
REMARK  220  A    between atoms: _500  and  _501
REMARK  221  A    between atoms: _503  and  _505
REMARK  222  A    between atoms: _505  and  _506
REMARK  223  A    between atoms: _505  and  _508
REMARK  224  A    between atoms: _508  and  _509
REMARK  225  A    between atoms: _509  and  _510
REMARK  226  A    between atoms: _510  and  _511
REMARK  227  A    between atoms: _511  and  _512
REMARK  228  A    between atoms: _516  and  _518
REMARK  229  A    between atoms: _518  and  _519
REMARK  230  A    between atoms: _521  and  _523
REMARK  231  A    between atoms: _523  and  _524
REMARK  232  A    between atoms: _523  and  _526
REMARK  233  A    between atoms: _526  and  _527
REMARK  234  A    between atoms: _527  and  _528
REMARK  235  A    between atoms: _530  and  _532
REMARK  236  A    between atoms: _532  and  _533
REMARK  237  A    between atoms: _532  and  _535
REMARK  238  A    between atoms: _535  and  _536
REMARK  239  A    between atoms: _536  and  _537
REMARK  240  A    between atoms: _540  and  _542
REMARK  241  A    between atoms: _542  and  _543
REMARK  242  A    between atoms: _542  and  _545
REMARK  243  A    between atoms: _545  and  _546
REMARK  244  A    between atoms: _551  and  _553
REMARK  245  A    between atoms: _553  and  _554
REMARK  246  A    between atoms: _553  and  _556
REMARK  247  A    between atoms: _556  and  _557
REMARK  248  A    between atoms: _560  and  _562
REMARK  249  A    between atoms: _562  and  _563
REMARK  250  A    between atoms: _562  and  _565
REMARK  251  A    between atoms: _565  and  _566
REMARK  252  A    between atoms: _571  and  _572
REMARK  253  A    between atoms: _574  and  _576
REMARK  254  A    between atoms: _576  and  _577
REMARK  255  A    between atoms: _576  and  _579
REMARK  256  A    between atoms: _579  and  _580
REMARK  257  A    between atoms: _582  and  _584
REMARK  258  A    between atoms: _584  and  _585
REMARK  259  A    between atoms: _584  and  _587
REMARK  260  A    between atoms: _587  and  _588
REMARK  261  A    between atoms: _588  and  _589
REMARK  262  A    between atoms: _591  and  _593
REMARK  263  A    between atoms: _593  and  _594
REMARK  264  A    between atoms: _593  and  _596
REMARK  265  A    between atoms: _596  and  _597
REMARK  266  A    between atoms: _597  and  _598
REMARK  267  A    between atoms: _598  and  _599
REMARK  268  A    between atoms: _599  and  _600
REMARK  269  A    between atoms: _604  and  _606
REMARK  270  A    between atoms: _606  and  _607
REMARK  271  A    between atoms: _606  and  _609
REMARK  272  A    between atoms: _612  and  _614
REMARK  273  A    between atoms: _614  and  _615
REMARK  274  A    between atoms: _614  and  _617
REMARK  275  A    between atoms: _617  and  _618
REMARK  276  A    between atoms: _621  and  _623
REMARK  277  A    between atoms: _623  and  _624
REMARK  278  A    between atoms: _623  and  _626
REMARK  279  A    between atoms: _626  and  _627
REMARK  280  A    between atoms: _630  and  _632
REMARK  281  A    between atoms: _632  and  _633
REMARK  282  A    between atoms: _632  and  _635
REMARK  283  A    between atoms: _635  and  _636
REMARK                            x       y       z     vdW  Elec       q    Type
REMARK                         _______ _______ _______ _____ _____    ______ ____
ROOT
ATOM      1  CA  LEU A   6     -41.456   0.203  22.225  0.00  0.00    +0.149 C 
ENDROOT
BRANCH   1   2
ATOM      2  C   LEU A   6     -42.663  -0.738  22.129  0.00  0.00    +0.241 C 
ATOM      3  N   TYR A   7     -42.981  -1.395  23.247  0.00  0.00    -0.297 N 
ATOM      4  H   TYR A   7     -42.357  -1.303  24.074  0.00  0.00    +0.150 HD
ATOM      5  O   LEU A   6     -43.268  -0.881  21.044  0.00  0.00    -0.273 OA
BRANCH   3   6
ATOM      6  CA  TYR A   7     -44.172  -2.239  23.356  0.00  0.00    +0.153 C 
BRANCH   6   7
ATOM      7  C   TYR A   7     -45.434  -1.459  23.066  0.00  0.00    +0.241 C 
ATOM      8  N   SER A   8     -45.594  -0.273  23.660  0.00  0.00    -0.295 N 
ATOM      9  H   SER A   8     -44.876   0.064  24.333  0.00  0.00    +0.150 HD
ATOM     10  O   TYR A   7     -46.265  -1.934  22.305  0.00  0.00    -0.273 OA
BRANCH   8  11
ATOM     11  CA  SER A   8     -46.777   0.568  23.375  0.00  0.00    +0.178 C 
BRANCH  11  12
ATOM     12  C   SER A   8     -46.857   0.936  21.877  0.00  0.00    +0.243 C 
ATOM     13  O   SER A   8     -47.948   1.038  21.283  0.00  0.00    -0.273 OA
ATOM     14  N   MET A   9     -45.695   1.124  21.258  0.00  0.00    -0.297 N 
ATOM     15  H   MET A   9     -44.804   0.971  21.773  0.00  0.00    +0.150 HD
BRANCH  14  16
ATOM     16  CA  MET A   9     -45.663   1.543  19.863  0.00  0.00    +0.149 C 
BRANCH  16  17
ATOM     17  C   MET A   9     -46.020   0.379  18.961  0.00  0.00    +0.241 C 
ATOM     18  N   LYS A  10     -45.603  -0.824  19.358  0.00  0.00    -0.298 N 
ATOM     19  H   LYS A  10     -44.972  -0.881  20.182  0.00  0.00    +0.150 HD
ATOM     20  O   MET A   9     -46.656   0.585  17.925  0.00  0.00    -0.273 OA
BRANCH  18  21
ATOM     21  CA  LYS A  10     -45.990  -2.068  18.691  0.00  0.00    +0.137 C 
BRANCH  21  22
ATOM     22  C   LYS A  10     -47.505  -2.304  18.745  0.00  0.00    +0.227 C 
ATOM     23  O   LYS A  10     -48.136  -2.642  17.730  0.00  0.00    -0.286 OA
ENDBRANCH  21  22
BRANCH  21  24
ATOM     24  CB  LYS A  10     -45.258  -3.252  19.336  0.00  0.00    +0.028 C 
BRANCH  24  25
ATOM     25  CG  LYS A  10     -45.473  -4.585  18.611  0.00  0.00    -0.000 C 
BRANCH  25  26
ATOM     26  CD  LYS A  10     -46.601  -5.420  19.190  0.00  0.00    -0.024 C 
BRANCH  26  27
ATOM     27  CE  LYS A  10     -46.049  -6.577  19.998  0.00  0.00    -0.086 C 
BRANCH  27  28
ATOM     28  NZ  LYS A  10     -45.633  -6.094  21.341  0.00  0.00    +0.380 N 
ATOM     29  HZ1 LYS A  10     -45.255  -6.890  21.893  0.00  0.00    -0.089 HD
ATOM     30  HZ2 LYS A  10     -46.455  -5.690  21.833  0.00  0.00    -0.089 HD
ATOM     31  HZ3 LYS A  10     -44.899  -5.365  21.234  0.00  0.00    -0.089 HD
ENDBRANCH  27  28
ENDBRANCH  26  27
ENDBRANCH  25  26
ENDBRANCH  24  25
ENDBRANCH  21  24
ENDBRANCH  18  21
ENDBRANCH  16  17
BRANCH  16  32
ATOM     32  CB  MET A   9     -44.309   2.129  19.467  0.00  0.00    +0.041 C 
BRANCH  32  33
ATOM     33  CG  MET A   9     -44.056   3.537  19.998  0.00  0.00    +0.060 C 
BRANCH  33  34
ATOM     34  SD  MET A   9     -45.278   4.720  19.360  0.00  0.00    -0.139 S 
ATOM     35  CE  MET A   9     -44.573   6.251  19.893  0.00  0.00    +0.069 C 
ENDBRANCH  33  34
ENDBRANCH  32  33
ENDBRANCH  16  32
ENDBRANCH  14  16
ENDBRANCH  11  12
BRANCH  11  36
ATOM     36  CB  SER A   8     -46.767   1.845  24.239  0.00  0.00    +0.166 C 
BRANCH  36  37
ATOM     37  OG  SER A   8     -45.835   2.796  23.721  0.00  0.00    -0.380 OA
ATOM     38  H   SER A   8     -44.927   2.401  23.722  0.00  0.00    +0.211 HD
ENDBRANCH  36  37
ENDBRANCH  11  36
ENDBRANCH   8  11
ENDBRANCH   6   7
BRANCH   6  39
ATOM     39  CB  TYR A   7     -44.283  -2.871  24.755  0.00  0.00    +0.055 C 
BRANCH  39  40
ATOM     40  CG  TYR A   7     -45.457  -3.818  24.892  0.00  0.00    -0.020 A 
ATOM     41  CD2 TYR A   7     -46.628  -3.421  25.538  0.00  0.00    -0.001 A 
ATOM     42  CE2 TYR A   7     -47.718  -4.301  25.658  0.00  0.00    +0.036 A 
ATOM     43  CZ  TYR A   7     -47.634  -5.584  25.128  0.00  0.00    +0.134 A 
ATOM     44  CE1 TYR A   7     -46.477  -5.988  24.471  0.00  0.00    +0.036 A 
ATOM     45  CD1 TYR A   7     -45.405  -5.106  24.355  0.00  0.00    -0.001 A 
BRANCH  43  46
ATOM     46  OH  TYR A   7     -48.708  -6.456  25.241  0.00  0.00    -0.506 OA
ATOM     47  HH  TYR A   7     -49.443  -6.011  25.733  0.00  0.00    +0.292 HD
ENDBRANCH  43  46
ENDBRANCH  39  40
ENDBRANCH   6  39
ENDBRANCH   3   6
ENDBRANCH   1   2
BRANCH   1  49
ATOM     48  C   HIS A   5     -42.481   1.795  23.776  0.00  0.00    +0.241 C 
ATOM     49  N   LEU A   6     -41.461   1.011  23.460  0.00  0.00    -0.297 N 
ATOM     50  H   LEU A   6     -40.642   0.964  24.099  0.00  0.00    +0.150 HD
ATOM     51  O   HIS A   5     -43.459   1.979  23.023  0.00  0.00    -0.273 OA
BRANCH  48  52
ATOM     52  CA  HIS A   5     -42.383   2.507  25.129  0.00  0.00    +0.155 C 
BRANCH  52  54
ATOM     53  C   GLU A   4     -42.832   0.573  26.565  0.00  0.00    +0.241 C 
ATOM     54  N   HIS A   5     -42.006   1.558  26.212  0.00  0.00    -0.297 N 
ATOM     55  H   HIS A   5     -41.092   1.664  26.697  0.00  0.00    +0.150 HD
ATOM     56  O   GLU A   4     -43.916   0.363  26.001  0.00  0.00    -0.273 OA
BRANCH  53  57
ATOM     57  CA  GLU A   4     -42.388  -0.344  27.691  0.00  0.00    +0.149 C 
BRANCH  57  59
ATOM     58  C   MET A   3     -40.460  -1.256  26.512  0.00  0.00    +0.241 C 
ATOM     59  N   GLU A   4     -40.964  -0.618  27.570  0.00  0.00    -0.297 N 
ATOM     60  H   GLU A   4     -40.322  -0.309  28.328  0.00  0.00    +0.150 HD
ATOM     61  O   MET A   3     -41.158  -1.725  25.632  0.00  0.00    -0.273 OA
BRANCH  58  62
ATOM     62  CA  MET A   3     -38.932  -1.420  26.446  0.00  0.00    +0.149 C 
BRANCH  62  64
ATOM     63  C   GLY A   2     -38.380   0.918  26.104  0.00  0.00    +0.243 C 
ATOM     64  N   MET A   3     -38.272  -0.198  26.843  0.00  0.00    -0.297 N 
ATOM     65  H   MET A   3     -37.705  -0.182  27.714  0.00  0.00    +0.150 HD
ATOM     66  O   GLY A   2     -39.020   0.960  25.061  0.00  0.00    -0.273 OA
BRANCH  63  67
ATOM     67  CA  GLY A   2     -37.662   2.171  26.603  0.00  0.00    +0.176 C 
BRANCH  67  70
ATOM     68  C   LYS A   1     -38.815   2.399  28.732  0.00  0.00    +0.238 C 
ATOM     69  O   LYS A   1     -39.927   2.456  28.173  0.00  0.00    -0.274 OA
ATOM     70  N   GLY A   2     -37.670   2.282  28.049  0.00  0.00    -0.296 N 
ATOM     71  H   GLY A   2     -36.768   2.270  28.566  0.00  0.00    +0.150 HD
BRANCH  68  72
ATOM     72  CA  LYS A   1     -38.708   2.472  30.266  0.00  0.00    +0.145 C 
BRANCH  72  73
ATOM     73  N   LYS A   1     -37.756   1.490  30.807  0.00  0.00    -0.238 NA
ATOM     74  H   LYS A   1     -36.887   1.816  31.276  0.00  0.00    +0.142 HD
ENDBRANCH  72  73
BRANCH  72  75
ATOM     75  CB  LYS A   1     -38.382   3.891  30.743  0.00  0.00    +0.026 C 
BRANCH  75  76
ATOM     76  CG  LYS A   1     -38.438   4.046  32.296  0.00  0.00    -0.000 C 
BRANCH  76  77
ATOM     77  CD  LYS A   1     -39.792   3.598  32.853  0.00  0.00    -0.024 C 
BRANCH  77  78
ATOM     78  CE  LYS A   1     -39.842   3.709  34.360  0.00  0.00    -0.086 C 
BRANCH  78  79
ATOM     79  NZ  LYS A   1     -41.201   3.302  34.840  0.00  0.00    +0.380 N 
ATOM     80  HZ1 LYS A   1     -41.238   3.377  35.877  0.00  0.00    -0.089 HD
ATOM     81  HZ2 LYS A   1     -41.388   2.319  34.556  0.00  0.00    -0.089 HD
ATOM     82  HZ3 LYS A   1     -41.918   3.928  34.420  0.00  0.00    -0.089 HD
ENDBRANCH  78  79
ENDBRANCH  77  78
ENDBRANCH  76  77
ENDBRANCH  75  76
ENDBRANCH  72  75
ENDBRANCH  68  72
ENDBRANCH  67  70
ENDBRANCH  63  67
ENDBRANCH  62  64
BRANCH  62  83
ATOM     83  CB  MET A   3     -38.494  -2.594  27.328  0.00  0.00    +0.041 C 
BRANCH  83  84
ATOM     84  CG  MET A   3     -38.650  -3.942  26.652  0.00  0.00    +0.060 C 
BRANCH  84  85
ATOM     85  SD  MET A   3     -37.358  -4.201  25.384  0.00  0.00    -0.139 S 
ATOM     86  CE  MET A   3     -35.887  -4.266  26.425  0.00  0.00    +0.069 C 
ENDBRANCH  84  85
ENDBRANCH  83  84
ENDBRANCH  62  83
ENDBRANCH  58  62
ENDBRANCH  57  59
BRANCH  57  87
ATOM     87  CB  GLU A   4     -42.745   0.288  29.038  0.00  0.00    +0.041 C 
BRANCH  87  88
ATOM     88  CG  GLU A   4     -42.635  -0.675  30.234  0.00  0.00    +0.116 C 
BRANCH  88  89
ATOM     89  CD  GLU A   4     -43.719  -1.776  30.285  0.00  0.00    +0.365 C 
ATOM     90  OE2 GLU A   4     -43.620  -2.649  31.182  0.00  0.00    -0.246 OA
ATOM     91  OE1 GLU A   4     -44.675  -1.773  29.461  0.00  0.00    -0.246 OA
ENDBRANCH  88  89
ENDBRANCH  87  88
ENDBRANCH  57  87
ENDBRANCH  53  57
ENDBRANCH  52  54
BRANCH  52  92
ATOM     92  CB  HIS A   5     -41.398   3.677  25.011  0.00  0.00    +0.076 C 
BRANCH  92  93
ATOM     93  CG  HIS A   5     -41.753   4.638  23.910  0.00  0.00    +0.082 A 
ATOM     94  CD2 HIS A   5     -42.662   5.642  23.863  0.00  0.00    +0.115 A 
ATOM     95  NE2 HIS A   5     -42.606   6.185  22.604  0.00  0.00    -0.221 NA
ATOM     96  CE1 HIS A   5     -41.687   5.540  21.900  0.00  0.00    +0.199 A 
ATOM     97  ND1 HIS A   5     -41.174   4.586  22.662  0.00  0.00    -0.227 NA
ENDBRANCH  92  93
ENDBRANCH  52  92
ENDBRANCH  48  52
ENDBRANCH   1  49
BRANCH   1  98
ATOM     98  CB  LEU A   6     -40.158  -0.608  22.110  0.00  0.00    +0.029 C 
BRANCH  98  99
ATOM     99  CG  LEU A   6     -39.971  -1.398  20.810  0.00  0.00    +0.002 C 
ATOM    100  CD2 LEU A   6     -38.602  -2.062  20.847  0.00  0.00    +0.000 C 
ATOM    101  CD1 LEU A   6     -40.161  -0.506  19.551  0.00  0.00    +0.000 C 
ENDBRANCH  98  99
ENDBRANCH   1  98
TORSDOF 48
REMARK  Name = ../refined-set-2016/2p15/2p15_pocket.pdb
REMARK  283 active torsions:
REMARK  status: ('A' for Active; 'I' for Inactive)
REMARK    1  A    between atoms: _1  and  _3
REMARK    2  A    between atoms: _3  and  _4
REMARK    3  A    between atoms: _3  and  _6
REMARK    4  A    between atoms: _6  and  _7
REMARK    5  A    between atoms: _10  and  _12
REMARK    6  A    between atoms: _12  and  _13
REMARK    7  A    between atoms: _12  and  _15
REMARK    8  A    between atoms: _15  and  _16
REMARK    9  A    between atoms: _19  and  _21
REMARK   10  A    between atoms: _21  and  _22
REMARK   11  A    between atoms: _21  and  _24
REMARK   12  A    between atoms: _24  and  _25
REMARK   13  A    between atoms: _31  and  _33
REMARK   14  A    between atoms: _33  and  _34
REMARK   15  A    between atoms: _33  and  _36
REMARK   16  A    between atoms: _36  and  _37
REMARK   17  A    between atoms: _39  and  _41
REMARK   18  A    between atoms: _41  and  _42
REMARK   19  A    between atoms: _41  and  _44
REMARK   20  A    between atoms: _44  and  _45
REMARK   21  A    between atoms: _45  and  _46
REMARK   22  A    between atoms: _49  and  _51
REMARK   23  A    between atoms: _51  and  _52
REMARK   24  A    between atoms: _51  and  _54
REMARK   25  A    between atoms: _54  and  _55
REMARK   26  A    between atoms: _55  and  _56
REMARK   27  A    between atoms: _58  and  _60
REMARK   28  A    between atoms: _60  and  _61
REMARK   29  A    between atoms: _60  and  _63
REMARK   30  A    between atoms: _63  and  _64
REMARK   31  A    between atoms: _64  and  _65
REMARK   32  A    between atoms: _67  and  _69
REMARK   33  A    between atoms: _69  and  _70
REMARK   34  A    between atoms: _69  and  _72
REMARK   35  A    between atoms: _72  and  _73
REMARK   36  A    between atoms: _76  and  _78
REMARK   37  A    between atoms: _78  and  _79
REMARK   38  A    between atoms: _78  and  _81
REMARK   39  A    between atoms: _81  and  _82
REMARK   40  A    between atoms: _85  and  _87
REMARK   41  A    between atoms: _87  and  _88
REMARK   42  A    between atoms: _87  and  _90
REMARK   43  A    between atoms: _90  and  _91
REMARK   44  A    between atoms: _94  and  _96
REMARK   45  A    between atoms: _96  and  _97
REMARK   46  A    between atoms: _96  and  _99
REMARK   47  A    between atoms: _99  and  _100
REMARK   48  A    between atoms: _105  and  _107
REMARK   49  A    between atoms: _107  and  _108
REMARK   50  A    between atoms: _107  and  _110
REMARK   51  A    between atoms: _110  and  _111
REMARK   52  A    between atoms: _114  and  _116
REMARK   53  A    between atoms: _116  and  _117
REMARK   54  A    between atoms: _120  and  _122
REMARK   55  A    between atoms: _122  and  _123
REMARK   56  A    between atoms: _122  and  _125
REMARK   57  A    between atoms: _125  and  _126
REMARK   58  A    between atoms: _129  and  _131
REMARK   59  A    between atoms: _131  and  _132
REMARK   60  A    between atoms: _131  and  _134
REMARK   61  A    between atoms: _134  and  _135
REMARK   62  A    between atoms: _135  and  _136
REMARK   63  A    between atoms: _136  and  _137
REMARK   64  A    between atoms: _146  and  _148
REMARK   65  A    between atoms: _148  and  _149
REMARK   66  A    between atoms: _148  and  _151
REMARK   67  A    between atoms: _151  and  _152
REMARK   68  A    between atoms: _152  and  _153
REMARK   69  A    between atoms: _156  and  _158
REMARK   70  A    between atoms: _158  and  _159
REMARK   71  A    between atoms: _158  and  _161
REMARK   72  A    between atoms: _161  and  _162
REMARK   73  A    between atoms: _165  and  _167
REMARK   74  A    between atoms: _167  and  _168
REMARK   75  A    between atoms: _167  and  _170
REMARK   76  A    between atoms: _170  and  _171
REMARK   77  A    between atoms: _171  and  _172
REMARK   78  A    between atoms: _174  and  _176
REMARK   79  A    between atoms: _176  and  _177
REMARK   80  A    between atoms: _176  and  _179
REMARK   81  A    between atoms: _179  and  _180
REMARK   82  A    between atoms: _190  and  _192
REMARK   83  A    between atoms: _192  and  _193
REMARK   84  A    between atoms: _192  and  _195
REMARK   85  A    between atoms: _195  and  _196
REMARK   86  A    between atoms: _199  and  _201
REMARK   87  A    between atoms: _201  and  _202
REMARK   88  A    between atoms: _201  and  _204
REMARK   89  A    between atoms: _204  and  _205
REMARK   90  A    between atoms: _205  and  _206
REMARK   91  A    between atoms: _209  and  _211
REMARK   92  A    between atoms: _211  and  _212
REMARK   93  A    between atoms: _211  and  _214
REMARK   94  A    between atoms: _214  and  _215
REMARK   95  A    between atoms: _218  and  _220
REMARK   96  A    between atoms: _220  and  _221
REMARK   97  A    between atoms: _220  and  _223
REMARK   98  A    between atoms: _223  and  _224
REMARK   99  A    between atoms: _227  and  _229
REMARK  100  A    between atoms: _229  and  _230
REMARK  101  A    between atoms: _229  and  _232
REMARK  102  A    between atoms: _232  and  _233
REMARK  103  A    between atoms: _233  and  _234
REMARK  104  A    between atoms: _236  and  _238
REMARK  105  A    between atoms: _238  and  _239
REMARK  106  A    between atoms: _238  and  _241
REMARK  107  A    between atoms: _241  and  _242
REMARK  108  A    between atoms: _245  and  _247
REMARK  109  A    between atoms: _247  and  _248
REMARK  110  A    between atoms: _250  and  _252
REMARK  111  A    between atoms: _252  and  _253
REMARK  112  A    between atoms: _252  and  _255
REMARK  113  A    between atoms: _255  and  _256
REMARK  114  A    between atoms: _259  and  _261
REMARK  115  A    between atoms: _261  and  _262
REMARK  116  A    between atoms: _261  and  _264
REMARK  117  A    between atoms: _267  and  _269
REMARK  118  A    between atoms: _269  and  _270
REMARK  119  A    between atoms: _269  and  _272
REMARK  120  A    between atoms: _272  and  _273
REMARK  121  A    between atoms: _273  and  _274
REMARK  122  A    between atoms: _274  and  _275
REMARK  123  A    between atoms: _284  and  _286
REMARK  124  A    between atoms: _286  and  _287
REMARK  125  A    between atoms: _286  and  _289
REMARK  126  A    between atoms: _289  and  _290
REMARK  127  A    between atoms: _293  and  _295
REMARK  128  A    between atoms: _295  and  _296
REMARK  129  A    between atoms: _295  and  _298
REMARK  130  A    between atoms: _298  and  _299
REMARK  131  A    between atoms: _302  and  _304
REMARK  132  A    between atoms: _304  and  _305
REMARK  133  A    between atoms: _304  and  _307
REMARK  134  A    between atoms: _307  and  _308
REMARK  135  A    between atoms: _314  and  _316
REMARK  136  A    between atoms: _316  and  _317
REMARK  137  A    between atoms: _320  and  _322
REMARK  138  A    between atoms: _322  and  _323
REMARK  139  A    between atoms: _322  and  _325
REMARK  140  A    between atoms: _325  and  _326
REMARK  141  A    between atoms: _329  and  _331
REMARK  142  A    between atoms: _331  and  _332
REMARK  143  A    between atoms: _331  and  _334
REMARK  144  A    between atoms: _334  and  _335
REMARK  145  A    between atoms: _338  and  _340
REMARK  146  A    between atoms: _340  and  _341
REMARK  147  A    between atoms: _340  and  _343
REMARK  148  A    between atoms: _343  and  _344
REMARK  149  A    between atoms: _347  and  _349
REMARK  150  A    between atoms: _349  and  _350
REMARK  151  A    between atoms: _349  and  _352
REMARK  152  A    between atoms: _352  and  _353
REMARK  153  A    between atoms: _353  and  _354
REMARK  154  A    between atoms: _359  and  _361
REMARK  155  A    between atoms: _361  and  _362
REMARK  156  A    between atoms: _361  and  _364
REMARK  157  A    between atoms: _364  and  _365
REMARK  158  A    between atoms: _365  and  _366
REMARK  159  A    between atoms: _366  and  _367
REMARK  160  A    between atoms: _367  and  _368
REMARK  161  A    between atoms: _372  and  _374
REMARK  162  A    between atoms: _374  and  _375
REMARK  163  A    between atoms: _374  and  _377
REMARK  164  A    between atoms: _379  and  _381
REMARK  165  A    between atoms: _381  and  _382
REMARK  166  A    between atoms: _381  and  _384
REMARK  167  A    between atoms: _387  and  _389
REMARK  168  A    between atoms: _389  and  _390
REMARK  169  A    between atoms: _389  and  _392
REMARK  170  A    between atoms: _392  and  _393
REMARK  171  A    between atoms: _393  and  _394
REMARK  172  A    between atoms: _397  and  _399
REMARK  173  A    between atoms: _399  and  _400
REMARK  174  A    between atoms: _402  and  _404
REMARK  175  A    between atoms: _404  and  _405
REMARK  176  A    between atoms: _404  and  _407
REMARK  177  A    between atoms: _407  and  _408
REMARK  178  A    between atoms: _408  and  _409
REMARK  179  A    between atoms: _411  and  _413
REMARK  180  A    between atoms: _413  and  _414
REMARK  181  A    between atoms: _413  and  _416
REMARK  182  A    between atoms: _419  and  _421
REMARK  183  A    between atoms: _421  and  _422
REMARK  184  A    between atoms: _421  and  _424
REMARK  185  A    between atoms: _424  and  _425
REMARK  186  A    between atoms: _425  and  _426
REMARK  187  A    between atoms: _429  and  _431
REMARK  188  A    between atoms: _431  and  _432
REMARK  189  A    between atoms: _431  and  _434
REMARK  190  A    between atoms: _434  and  _435
REMARK  191  A    between atoms: _438  and  _440
REMARK  192  A    between atoms: _440  and  _441
REMARK  193  A    between atoms: _440  and  _443
REMARK  194  A    between atoms: _443  and  _444
REMARK  195  A    between atoms: _450  and  _452
REMARK  196  A    between atoms: _452  and  _453
REMARK  197  A    between atoms: _452  and  _455
REMARK  198  A    between atoms: _455  and  _456
REMARK  199  A    between atoms: _459  and  _461
REMARK  200  A    between atoms: _461  and  _462
REMARK  201  A    between atoms: _461  and  _464
REMARK  202  A    between atoms: _464  and  _465
REMARK  203  A    between atoms: _465  and  _466
REMARK  204  A    between atoms: _468  and  _470
REMARK  205  A    between atoms: _470  and  _471
REMARK  206  A    between atoms: _470  and  _473
REMARK  207  A    between atoms: _473  and  _474
REMARK  208  A    between atoms: _477  and  _479
REMARK  209  A    between atoms: _479  and  _480
REMARK  210  A    between atoms: _479  and  _482
REMARK  211  A    between atoms: _482  and  _483
REMARK  212  A    between atoms: _486  and  _488
REMARK  213  A    between atoms: _488  and  _489
REMARK  214  A    between atoms: _488  and  _491
REMARK  215  A    between atoms: _491  and  _492
REMARK  216  A    between atoms: _492  and  _493
REMARK  217  A    between atoms: _495  and  _497
REMARK  218  A    between atoms: _497  and  _498
REMARK  219  A    between atoms: _497  and  _500
REMARK  220  A    between atoms: _500  and  _501
REMARK  221  A    between atoms: _503  and  _505
REMARK  222  A    between atoms: _505  and  _506
REMARK  223  A    between atoms: _505  and  _508
REMARK  224  A    between atoms: _508  and  _509
REMARK  225  A    between atoms: _509  and  _510
REMARK  226  A    between atoms: _510  and  _511
REMARK  227  A    between atoms: _511  and  _512
REMARK  228  A    between atoms: _516  and  _518
REMARK  229  A    between atoms: _518  and  _519
REMARK  230  A    between atoms: _521  and  _523
REMARK  231  A    between atoms: _523  and  _524
REMARK  232  A    between atoms: _523  and  _526
REMARK  233  A    between atoms: _526  and  _527
REMARK  234  A    between atoms: _527  and  _528
REMARK  235  A    between atoms: _530  and  _532
REMARK  236  A    between atoms: _532  and  _533
REMARK  237  A    between atoms: _532  and  _535
REMARK  238  A    between atoms: _535  and  _536
REMARK  239  A    between atoms: _536  and  _537
REMARK  240  A    between atoms: _540  and  _542
REMARK  241  A    between atoms: _542  and  _543
REMARK  242  A    between atoms: _542  and  _545
REMARK  243  A    between atoms: _545  and  _546
REMARK  244  A    between atoms: _551  and  _553
REMARK  245  A    between atoms: _553  and  _554
REMARK  246  A    between atoms: _553  and  _556
REMARK  247  A    between atoms: _556  and  _557
REMARK  248  A    between atoms: _560  and  _562
REMARK  249  A    between atoms: _562  and  _563
REMARK  250  A    between atoms: _562  and  _565
REMARK  251  A    between atoms: _565  and  _566
REMARK  252  A    between atoms: _571  and  _572
REMARK  253  A    between atoms: _574  and  _576
REMARK  254  A    between atoms: _576  and  _577
REMARK  255  A    between atoms: _576  and  _579
REMARK  256  A    between atoms: _579  and  _580
REMARK  257  A    between atoms: _582  and  _584
REMARK  258  A    between atoms: _584  and  _585
REMARK  259  A    between atoms: _584  and  _587
REMARK  260  A    between atoms: _587  and  _588
REMARK  261  A    between atoms: _588  and  _589
REMARK  262  A    between atoms: _591  and  _593
REMARK  263  A    between atoms: _593  and  _594
REMARK  264  A    between atoms: _593  and  _596
REMARK  265  A    between atoms: _596  and  _597
REMARK  266  A    between atoms: _597  and  _598
REMARK  267  A    between atoms: _598  and  _599
REMARK  268  A    between atoms: _599  and  _600
REMARK  269  A    between atoms: _604  and  _606
REMARK  270  A    between atoms: _606  and  _607
REMARK  271  A    between atoms: _606  and  _609
REMARK  272  A    between atoms: _612  and  _614
REMARK  273  A    between atoms: _614  and  _615
REMARK  274  A    between atoms: _614  and  _617
REMARK  275  A    between atoms: _617  and  _618
REMARK  276  A    between atoms: _621  and  _623
REMARK  277  A    between atoms: _623  and  _624
REMARK  278  A    between atoms: _623  and  _626
REMARK  279  A    between atoms: _626  and  _627
REMARK  280  A    between atoms: _630  and  _632
REMARK  281  A    between atoms: _632  and  _633
REMARK  282  A    between atoms: _632  and  _635
REMARK  283  A    between atoms: _635  and  _636
REMARK                            x       y       z     vdW  Elec       q    Type
REMARK                         _______ _______ _______ _____ _____    ______ ____
ROOT
ATOM      1  CA  VAL A   1     -44.472   0.715  13.122  0.00  0.00    +0.133 C 
ENDROOT
BRANCH   1   2
ATOM      2  CB  VAL A   1     -43.239   1.001  14.030  0.00  0.00    +0.023 C 
ATOM      3  CG2 VAL A   1     -43.548   2.082  15.048  0.00  0.00    +0.002 C 
ATOM      4  CG1 VAL A   1     -42.023   1.363  13.199  0.00  0.00    +0.002 C 
ENDBRANCH   1   2
BRANCH   1   5
ATOM      5  N   VAL A   1     -45.706   1.113  13.778  0.00  0.00    -0.239 NA
ATOM      6  H   VAL A   1     -46.009   0.582  14.619  0.00  0.00    +0.142 HD
ENDBRANCH   1   5
BRANCH   1   7
ATOM      7  C   VAL A   1     -44.457  -0.797  12.882  0.00  0.00    +0.224 C 
ATOM      8  O   VAL A   1     -44.713  -1.569  13.803  0.00  0.00    -0.287 OA
ENDBRANCH   1   7
TORSDOF 3
REMARK  Name = ../refined-set-2016/2p15/2p15_pocket.pdb
REMARK  283 active torsions:
REMARK  status: ('A' for Active; 'I' for Inactive)
REMARK    1  A    between atoms: _1  and  _3
REMARK    2  A    between atoms: _3  and  _4
REMARK    3  A    between atoms: _3  and  _6
REMARK    4  A    between atoms: _6  and  _7
REMARK    5  A    between atoms: _10  and  _12
REMARK    6  A    between atoms: _12  and  _13
REMARK    7  A    between atoms: _12  and  _15
REMARK    8  A    between atoms: _15  and  _16
REMARK    9  A    between atoms: _19  and  _21
REMARK   10  A    between atoms: _21  and  _22
REMARK   11  A    between atoms: _21  and  _24
REMARK   12  A    between atoms: _24  and  _25
REMARK   13  A    between atoms: _31  and  _33
REMARK   14  A    between atoms: _33  and  _34
REMARK   15  A    between atoms: _33  and  _36
REMARK   16  A    between atoms: _36  and  _37
REMARK   17  A    between atoms: _39  and  _41
REMARK   18  A    between atoms: _41  and  _42
REMARK   19  A    between atoms: _41  and  _44
REMARK   20  A    between atoms: _44  and  _45
REMARK   21  A    between atoms: _45  and  _46
REMARK   22  A    between atoms: _49  and  _51
REMARK   23  A    between atoms: _51  and  _52
REMARK   24  A    between atoms: _51  and  _54
REMARK   25  A    between atoms: _54  and  _55
REMARK   26  A    between atoms: _55  and  _56
REMARK   27  A    between atoms: _58  and  _60
REMARK   28  A    between atoms: _60  and  _61
REMARK   29  A    between atoms: _60  and  _63
REMARK   30  A    between atoms: _63  and  _64
REMARK   31  A    between atoms: _64  and  _65
REMARK   32  A    between atoms: _67  and  _69
REMARK   33  A    between atoms: _69  and  _70
REMARK   34  A    between atoms: _69  and  _72
REMARK   35  A    between atoms: _72  and  _73
REMARK   36  A    between atoms: _76  and  _78
REMARK   37  A    between atoms: _78  and  _79
REMARK   38  A    between atoms: _78  and  _81
REMARK   39  A    between atoms: _81  and  _82
REMARK   40  A    between atoms: _85  and  _87
REMARK   41  A    between atoms: _87  and  _88
REMARK   42  A    between atoms: _87  and  _90
REMARK   43  A    between atoms: _90  and  _91
REMARK   44  A    between atoms: _94  and  _96
REMARK   45  A    between atoms: _96  and  _97
REMARK   46  A    between atoms: _96  and  _99
REMARK   47  A    between atoms: _99  and  _100
REMARK   48  A    between atoms: _105  and  _107
REMARK   49  A    between atoms: _107  and  _108
REMARK   50  A    between atoms: _107  and  _110
REMARK   51  A    between atoms: _110  and  _111
REMARK   52  A    between atoms: _114  and  _116
REMARK   53  A    between atoms: _116  and  _117
REMARK   54  A    between atoms: _120  and  _122
REMARK   55  A    between atoms: _122  and  _123
REMARK   56  A    between atoms: _122  and  _125
REMARK   57  A    between atoms: _125  and  _126
REMARK   58  A    between atoms: _129  and  _131
REMARK   59  A    between atoms: _131  and  _132
REMARK   60  A    between atoms: _131  and  _134
REMARK   61  A    between atoms: _134  and  _135
REMARK   62  A    between atoms: _135  and  _136
REMARK   63  A    between atoms: _136  and  _137
REMARK   64  A    between atoms: _146  and  _148
REMARK   65  A    between atoms: _148  and  _149
REMARK   66  A    between atoms: _148  and  _151
REMARK   67  A    between atoms: _151  and  _152
REMARK   68  A    between atoms: _152  and  _153
REMARK   69  A    between atoms: _156  and  _158
REMARK   70  A    between atoms: _158  and  _159
REMARK   71  A    between atoms: _158  and  _161
REMARK   72  A    between atoms: _161  and  _162
REMARK   73  A    between atoms: _165  and  _167
REMARK   74  A    between atoms: _167  and  _168
REMARK   75  A    between atoms: _167  and  _170
REMARK   76  A    between atoms: _170  and  _171
REMARK   77  A    between atoms: _171  and  _172
REMARK   78  A    between atoms: _174  and  _176
REMARK   79  A    between atoms: _176  and  _177
REMARK   80  A    between atoms: _176  and  _179
REMARK   81  A    between atoms: _179  and  _180
REMARK   82  A    between atoms: _190  and  _192
REMARK   83  A    between atoms: _192  and  _193
REMARK   84  A    between atoms: _192  and  _195
REMARK   85  A    between atoms: _195  and  _196
REMARK   86  A    between atoms: _199  and  _201
REMARK   87  A    between atoms: _201  and  _202
REMARK   88  A    between atoms: _201  and  _204
REMARK   89  A    between atoms: _204  and  _205
REMARK   90  A    between atoms: _205  and  _206
REMARK   91  A    between atoms: _209  and  _211
REMARK   92  A    between atoms: _211  and  _212
REMARK   93  A    between atoms: _211  and  _214
REMARK   94  A    between atoms: _214  and  _215
REMARK   95  A    between atoms: _218  and  _220
REMARK   96  A    between atoms: _220  and  _221
REMARK   97  A    between atoms: _220  and  _223
REMARK   98  A    between atoms: _223  and  _224
REMARK   99  A    between atoms: _227  and  _229
REMARK  100  A    between atoms: _229  and  _230
REMARK  101  A    between atoms: _229  and  _232
REMARK  102  A    between atoms: _232  and  _233
REMARK  103  A    between atoms: _233  and  _234
REMARK  104  A    between atoms: _236  and  _238
REMARK  105  A    between atoms: _238  and  _239
REMARK  106  A    between atoms: _238  and  _241
REMARK  107  A    between atoms: _241  and  _242
REMARK  108  A    between atoms: _245  and  _247
REMARK  109  A    between atoms: _247  and  _248
REMARK  110  A    between atoms: _250  and  _252
REMARK  111  A    between atoms: _252  and  _253
REMARK  112  A    between atoms: _252  and  _255
REMARK  113  A    between atoms: _255  and  _256
REMARK  114  A    between atoms: _259  and  _261
REMARK  115  A    between atoms: _261  and  _262
REMARK  116  A    between atoms: _261  and  _264
REMARK  117  A    between atoms: _267  and  _269
REMARK  118  A    between atoms: _269  and  _270
REMARK  119  A    between atoms: _269  and  _272
REMARK  120  A    between atoms: _272  and  _273
REMARK  121  A    between atoms: _273  and  _274
REMARK  122  A    between atoms: _274  and  _275
REMARK  123  A    between atoms: _284  and  _286
REMARK  124  A    between atoms: _286  and  _287
REMARK  125  A    between atoms: _286  and  _289
REMARK  126  A    between atoms: _289  and  _290
REMARK  127  A    between atoms: _293  and  _295
REMARK  128  A    between atoms: _295  and  _296
REMARK  129  A    between atoms: _295  and  _298
REMARK  130  A    between atoms: _298  and  _299
REMARK  131  A    between atoms: _302  and  _304
REMARK  132  A    between atoms: _304  and  _305
REMARK  133  A    between atoms: _304  and  _307
REMARK  134  A    between atoms: _307  and  _308
REMARK  135  A    between atoms: _314  and  _316
REMARK  136  A    between atoms: _316  and  _317
REMARK  137  A    between atoms: _320  and  _322
REMARK  138  A    between atoms: _322  and  _323
REMARK  139  A    between atoms: _322  and  _325
REMARK  140  A    between atoms: _325  and  _326
REMARK  141  A    between atoms: _329  and  _331
REMARK  142  A    between atoms: _331  and  _332
REMARK  143  A    between atoms: _331  and  _334
REMARK  144  A    between atoms: _334  and  _335
REMARK  145  A    between atoms: _338  and  _340
REMARK  146  A    between atoms: _340  and  _341
REMARK  147  A    between atoms: _340  and  _343
REMARK  148  A    between atoms: _343  and  _344
REMARK  149  A    between atoms: _347  and  _349
REMARK  150  A    between atoms: _349  and  _350
REMARK  151  A    between atoms: _349  and  _352
REMARK  152  A    between atoms: _352  and  _353
REMARK  153  A    between atoms: _353  and  _354
REMARK  154  A    between atoms: _359  and  _361
REMARK  155  A    between atoms: _361  and  _362
REMARK  156  A    between atoms: _361  and  _364
REMARK  157  A    between atoms: _364  and  _365
REMARK  158  A    between atoms: _365  and  _366
REMARK  159  A    between atoms: _366  and  _367
REMARK  160  A    between atoms: _367  and  _368
REMARK  161  A    between atoms: _372  and  _374
REMARK  162  A    between atoms: _374  and  _375
REMARK  163  A    between atoms: _374  and  _377
REMARK  164  A    between atoms: _379  and  _381
REMARK  165  A    between atoms: _381  and  _382
REMARK  166  A    between atoms: _381  and  _384
REMARK  167  A    between atoms: _387  and  _389
REMARK  168  A    between atoms: _389  and  _390
REMARK  169  A    between atoms: _389  and  _392
REMARK  170  A    between atoms: _392  and  _393
REMARK  171  A    between atoms: _393  and  _394
REMARK  172  A    between atoms: _397  and  _399
REMARK  173  A    between atoms: _399  and  _400
REMARK  174  A    between atoms: _402  and  _404
REMARK  175  A    between atoms: _404  and  _405
REMARK  176  A    between atoms: _404  and  _407
REMARK  177  A    between atoms: _407  and  _408
REMARK  178  A    between atoms: _408  and  _409
REMARK  179  A    between atoms: _411  and  _413
REMARK  180  A    between atoms: _413  and  _414
REMARK  181  A    between atoms: _413  and  _416
REMARK  182  A    between atoms: _419  and  _421
REMARK  183  A    between atoms: _421  and  _422
REMARK  184  A    between atoms: _421  and  _424
REMARK  185  A    between atoms: _424  and  _425
REMARK  186  A    between atoms: _425  and  _426
REMARK  187  A    between atoms: _429  and  _431
REMARK  188  A    between atoms: _431  and  _432
REMARK  189  A    between atoms: _431  and  _434
REMARK  190  A    between atoms: _434  and  _435
REMARK  191  A    between atoms: _438  and  _440
REMARK  192  A    between atoms: _440  and  _441
REMARK  193  A    between atoms: _440  and  _443
REMARK  194  A    between atoms: _443  and  _444
REMARK  195  A    between atoms: _450  and  _452
REMARK  196  A    between atoms: _452  and  _453
REMARK  197  A    between atoms: _452  and  _455
REMARK  198  A    between atoms: _455  and  _456
REMARK  199  A    between atoms: _459  and  _461
REMARK  200  A    between atoms: _461  and  _462
REMARK  201  A    between atoms: _461  and  _464
REMARK  202  A    between atoms: _464  and  _465
REMARK  203  A    between atoms: _465  and  _466
REMARK  204  A    between atoms: _468  and  _470
REMARK  205  A    between atoms: _470  and  _471
REMARK  206  A    between atoms: _470  and  _473
REMARK  207  A    between atoms: _473  and  _474
REMARK  208  A    between atoms: _477  and  _479
REMARK  209  A    between atoms: _479  and  _480
REMARK  210  A    between atoms: _479  and  _482
REMARK  211  A    between atoms: _482  and  _483
REMARK  212  A    between atoms: _486  and  _488
REMARK  213  A    between atoms: _488  and  _489
REMARK  214  A    between atoms: _488  and  _491
REMARK  215  A    between atoms: _491  and  _492
REMARK  216  A    between atoms: _492  and  _493
REMARK  217  A    between atoms: _495  and  _497
REMARK  218  A    between atoms: _497  and  _498
REMARK  219  A    between atoms: _497  and  _500
REMARK  220  A    between atoms: _500  and  _501
REMARK  221  A    between atoms: _503  and  _505
REMARK  222  A    between atoms: _505  and  _506
REMARK  223  A    between atoms: _505  and  _508
REMARK  224  A    between atoms: _508  and  _509
REMARK  225  A    between atoms: _509  and  _510
REMARK  226  A    between atoms: _510  and  _511
REMARK  227  A    between atoms: _511  and  _512
REMARK  228  A    between atoms: _516  and  _518
REMARK  229  A    between atoms: _518  and  _519
REMARK  230  A    between atoms: _521  and  _523
REMARK  231  A    between atoms: _523  and  _524
REMARK  232  A    between atoms: _523  and  _526
REMARK  233  A    between atoms: _526  and  _527
REMARK  234  A    between atoms: _527  and  _528
REMARK  235  A    between atoms: _530  and  _532
REMARK  236  A    between atoms: _532  and  _533
REMARK  237  A    between atoms: _532  and  _535
REMARK  238  A    between atoms: _535  and  _536
REMARK  239  A    between atoms: _536  and  _537
REMARK  240  A    between atoms: _540  and  _542
REMARK  241  A    between atoms: _542  and  _543
REMARK  242  A    between atoms: _542  and  _545
REMARK  243  A    between atoms: _545  and  _546
REMARK  244  A    between atoms: _551  and  _553
REMARK  245  A    between atoms: _553  and  _554
REMARK  246  A    between atoms: _553  and  _556
REMARK  247  A    between atoms: _556  and  _557
REMARK  248  A    between atoms: _560  and  _562
REMARK  249  A    between atoms: _562  and  _563
REMARK  250  A    between atoms: _562  and  _565
REMARK  251  A    between atoms: _565  and  _566
REMARK  252  A    between atoms: _571  and  _572
REMARK  253  A    between atoms: _574  and  _576
REMARK  254  A    between atoms: _576  and  _577
REMARK  255  A    between atoms: _576  and  _579
REMARK  256  A    between atoms: _579  and  _580
REMARK  257  A    between atoms: _582  and  _584
REMARK  258  A    between atoms: _584  and  _585
REMARK  259  A    between atoms: _584  and  _587
REMARK  260  A    between atoms: _587  and  _588
REMARK  261  A    between atoms: _588  and  _589
REMARK  262  A    between atoms: _591  and  _593
REMARK  263  A    between atoms: _593  and  _594
REMARK  264  A    between atoms: _593  and  _596
REMARK  265  A    between atoms: _596  and  _597
REMARK  266  A    between atoms: _597  and  _598
REMARK  267  A    between atoms: _598  and  _599
REMARK  268  A    between atoms: _599  and  _600
REMARK  269  A    between atoms: _604  and  _606
REMARK  270  A    between atoms: _606  and  _607
REMARK  271  A    between atoms: _606  and  _609
REMARK  272  A    between atoms: _612  and  _614
REMARK  273  A    between atoms: _614  and  _615
REMARK  274  A    between atoms: _614  and  _617
REMARK  275  A    between atoms: _617  and  _618
REMARK  276  A    between atoms: _621  and  _623
REMARK  277  A    between atoms: _623  and  _624
REMARK  278  A    between atoms: _623  and  _626
REMARK  279  A    between atoms: _626  and  _627
REMARK  280  A    between atoms: _630  and  _632
REMARK  281  A    between atoms: _632  and  _633
REMARK  282  A    between atoms: _632  and  _635
REMARK  283  A    between atoms: _635  and  _636
REMARK                            x       y       z     vdW  Elec       q    Type
REMARK                         _______ _______ _______ _____ _____    ______ ____
ROOT
ATOM      1  CA  LEU A   1     -41.023  -4.130  13.703  0.00  0.00    +0.133 C 
ENDROOT
BRANCH   1   2
ATOM      2  N   LEU A   1     -42.283  -3.745  13.103  0.00  0.00    -0.239 NA
ATOM      3  H   LEU A   1     -43.168  -4.147  13.474  0.00  0.00    +0.142 HD
ENDBRANCH   1   2
BRANCH   1   4
ATOM      4  C   LEU A   1     -40.501  -5.384  13.046  0.00  0.00    +0.224 C 
ATOM      5  O   LEU A   1     -41.289  -6.268  12.695  0.00  0.00    -0.287 OA
ENDBRANCH   1   4
BRANCH   1   6
ATOM      6  CB  LEU A   1     -41.198  -4.348  15.203  0.00  0.00    +0.025 C 
BRANCH   6   7
ATOM      7  CG  LEU A   1     -41.838  -3.198  15.968  0.00  0.00    +0.002 C 
ATOM      8  CD2 LEU A   1     -41.782  -3.482  17.468  0.00  0.00    +0.000 C 
ATOM      9  CD1 LEU A   1     -41.108  -1.939  15.640  0.00  0.00    +0.000 C 
ENDBRANCH   6   7
ENDBRANCH   1   6
TORSDOF 4
REMARK  Name = ../refined-set-2016/2p15/2p15_pocket.pdb
REMARK  283 active torsions:
REMARK  status: ('A' for Active; 'I' for Inactive)
REMARK    1  A    between atoms: _1  and  _3
REMARK    2  A    between atoms: _3  and  _4
REMARK    3  A    between atoms: _3  and  _6
REMARK    4  A    between atoms: _6  and  _7
REMARK    5  A    between atoms: _10  and  _12
REMARK    6  A    between atoms: _12  and  _13
REMARK    7  A    between atoms: _12  and  _15
REMARK    8  A    between atoms: _15  and  _16
REMARK    9  A    between atoms: _19  and  _21
REMARK   10  A    between atoms: _21  and  _22
REMARK   11  A    between atoms: _21  and  _24
REMARK   12  A    between atoms: _24  and  _25
REMARK   13  A    between atoms: _31  and  _33
REMARK   14  A    between atoms: _33  and  _34
REMARK   15  A    between atoms: _33  and  _36
REMARK   16  A    between atoms: _36  and  _37
REMARK   17  A    between atoms: _39  and  _41
REMARK   18  A    between atoms: _41  and  _42
REMARK   19  A    between atoms: _41  and  _44
REMARK   20  A    between atoms: _44  and  _45
REMARK   21  A    between atoms: _45  and  _46
REMARK   22  A    between atoms: _49  and  _51
REMARK   23  A    between atoms: _51  and  _52
REMARK   24  A    between atoms: _51  and  _54
REMARK   25  A    between atoms: _54  and  _55
REMARK   26  A    between atoms: _55  and  _56
REMARK   27  A    between atoms: _58  and  _60
REMARK   28  A    between atoms: _60  and  _61
REMARK   29  A    between atoms: _60  and  _63
REMARK   30  A    between atoms: _63  and  _64
REMARK   31  A    between atoms: _64  and  _65
REMARK   32  A    between atoms: _67  and  _69
REMARK   33  A    between atoms: _69  and  _70
REMARK   34  A    between atoms: _69  and  _72
REMARK   35  A    between atoms: _72  and  _73
REMARK   36  A    between atoms: _76  and  _78
REMARK   37  A    between atoms: _78  and  _79
REMARK   38  A    between atoms: _78  and  _81
REMARK   39  A    between atoms: _81  and  _82
REMARK   40  A    between atoms: _85  and  _87
REMARK   41  A    between atoms: _87  and  _88
REMARK   42  A    between atoms: _87  and  _90
REMARK   43  A    between atoms: _90  and  _91
REMARK   44  A    between atoms: _94  and  _96
REMARK   45  A    between atoms: _96  and  _97
REMARK   46  A    between atoms: _96  and  _99
REMARK   47  A    between atoms: _99  and  _100
REMARK   48  A    between atoms: _105  and  _107
REMARK   49  A    between atoms: _107  and  _108
REMARK   50  A    between atoms: _107  and  _110
REMARK   51  A    between atoms: _110  and  _111
REMARK   52  A    between atoms: _114  and  _116
REMARK   53  A    between atoms: _116  and  _117
REMARK   54  A    between atoms: _120  and  _122
REMARK   55  A    between atoms: _122  and  _123
REMARK   56  A    between atoms: _122  and  _125
REMARK   57  A    between atoms: _125  and  _126
REMARK   58  A    between atoms: _129  and  _131
REMARK   59  A    between atoms: _131  and  _132
REMARK   60  A    between atoms: _131  and  _134
REMARK   61  A    between atoms: _134  and  _135
REMARK   62  A    between atoms: _135  and  _136
REMARK   63  A    between atoms: _136  and  _137
REMARK   64  A    between atoms: _146  and  _148
REMARK   65  A    between atoms: _148  and  _149
REMARK   66  A    between atoms: _148  and  _151
REMARK   67  A    between atoms: _151  and  _152
REMARK   68  A    between atoms: _152  and  _153
REMARK   69  A    between atoms: _156  and  _158
REMARK   70  A    between atoms: _158  and  _159
REMARK   71  A    between atoms: _158  and  _161
REMARK   72  A    between atoms: _161  and  _162
REMARK   73  A    between atoms: _165  and  _167
REMARK   74  A    between atoms: _167  and  _168
REMARK   75  A    between atoms: _167  and  _170
REMARK   76  A    between atoms: _170  and  _171
REMARK   77  A    between atoms: _171  and  _172
REMARK   78  A    between atoms: _174  and  _176
REMARK   79  A    between atoms: _176  and  _177
REMARK   80  A    between atoms: _176  and  _179
REMARK   81  A    between atoms: _179  and  _180
REMARK   82  A    between atoms: _190  and  _192
REMARK   83  A    between atoms: _192  and  _193
REMARK   84  A    between atoms: _192  and  _195
REMARK   85  A    between atoms: _195  and  _196
REMARK   86  A    between atoms: _199  and  _201
REMARK   87  A    between atoms: _201  and  _202
REMARK   88  A    between atoms: _201  and  _204
REMARK   89  A    between atoms: _204  and  _205
REMARK   90  A    between atoms: _205  and  _206
REMARK   91  A    between atoms: _209  and  _211
REMARK   92  A    between atoms: _211  and  _212
REMARK   93  A    between atoms: _211  and  _214
REMARK   94  A    between atoms: _214  and  _215
REMARK   95  A    between atoms: _218  and  _220
REMARK   96  A    between atoms: _220  and  _221
REMARK   97  A    between atoms: _220  and  _223
REMARK   98  A    between atoms: _223  and  _224
REMARK   99  A    between atoms: _227  and  _229
REMARK  100  A    between atoms: _229  and  _230
REMARK  101  A    between atoms: _229  and  _232
REMARK  102  A    between atoms: _232  and  _233
REMARK  103  A    between atoms: _233  and  _234
REMARK  104  A    between atoms: _236  and  _238
REMARK  105  A    between atoms: _238  and  _239
REMARK  106  A    between atoms: _238  and  _241
REMARK  107  A    between atoms: _241  and  _242
REMARK  108  A    between atoms: _245  and  _247
REMARK  109  A    between atoms: _247  and  _248
REMARK  110  A    between atoms: _250  and  _252
REMARK  111  A    between atoms: _252  and  _253
REMARK  112  A    between atoms: _252  and  _255
REMARK  113  A    between atoms: _255  and  _256
REMARK  114  A    between atoms: _259  and  _261
REMARK  115  A    between atoms: _261  and  _262
REMARK  116  A    between atoms: _261  and  _264
REMARK  117  A    between atoms: _267  and  _269
REMARK  118  A    between atoms: _269  and  _270
REMARK  119  A    between atoms: _269  and  _272
REMARK  120  A    between atoms: _272  and  _273
REMARK  121  A    between atoms: _273  and  _274
REMARK  122  A    between atoms: _274  and  _275
REMARK  123  A    between atoms: _284  and  _286
REMARK  124  A    between atoms: _286  and  _287
REMARK  125  A    between atoms: _286  and  _289
REMARK  126  A    between atoms: _289  and  _290
REMARK  127  A    between atoms: _293  and  _295
REMARK  128  A    between atoms: _295  and  _296
REMARK  129  A    between atoms: _295  and  _298
REMARK  130  A    between atoms: _298  and  _299
REMARK  131  A    between atoms: _302  and  _304
REMARK  132  A    between atoms: _304  and  _305
REMARK  133  A    between atoms: _304  and  _307
REMARK  134  A    between atoms: _307  and  _308
REMARK  135  A    between atoms: _314  and  _316
REMARK  136  A    between atoms: _316  and  _317
REMARK  137  A    between atoms: _320  and  _322
REMARK  138  A    between atoms: _322  and  _323
REMARK  139  A    between atoms: _322  and  _325
REMARK  140  A    between atoms: _325  and  _326
REMARK  141  A    between atoms: _329  and  _331
REMARK  142  A    between atoms: _331  and  _332
REMARK  143  A    between atoms: _331  and  _334
REMARK  144  A    between atoms: _334  and  _335
REMARK  145  A    between atoms: _338  and  _340
REMARK  146  A    between atoms: _340  and  _341
REMARK  147  A    between atoms: _340  and  _343
REMARK  148  A    between atoms: _343  and  _344
REMARK  149  A    between atoms: _347  and  _349
REMARK  150  A    between atoms: _349  and  _350
REMARK  151  A    between atoms: _349  and  _352
REMARK  152  A    between atoms: _352  and  _353
REMARK  153  A    between atoms: _353  and  _354
REMARK  154  A    between atoms: _359  and  _361
REMARK  155  A    between atoms: _361  and  _362
REMARK  156  A    between atoms: _361  and  _364
REMARK  157  A    between atoms: _364  and  _365
REMARK  158  A    between atoms: _365  and  _366
REMARK  159  A    between atoms: _366  and  _367
REMARK  160  A    between atoms: _367  and  _368
REMARK  161  A    between atoms: _372  and  _374
REMARK  162  A    between atoms: _374  and  _375
REMARK  163  A    between atoms: _374  and  _377
REMARK  164  A    between atoms: _379  and  _381
REMARK  165  A    between atoms: _381  and  _382
REMARK  166  A    between atoms: _381  and  _384
REMARK  167  A    between atoms: _387  and  _389
REMARK  168  A    between atoms: _389  and  _390
REMARK  169  A    between atoms: _389  and  _392
REMARK  170  A    between atoms: _392  and  _393
REMARK  171  A    between atoms: _393  and  _394
REMARK  172  A    between atoms: _397  and  _399
REMARK  173  A    between atoms: _399  and  _400
REMARK  174  A    between atoms: _402  and  _404
REMARK  175  A    between atoms: _404  and  _405
REMARK  176  A    between atoms: _404  and  _407
REMARK  177  A    between atoms: _407  and  _408
REMARK  178  A    between atoms: _408  and  _409
REMARK  179  A    between atoms: _411  and  _413
REMARK  180  A    between atoms: _413  and  _414
REMARK  181  A    between atoms: _413  and  _416
REMARK  182  A    between atoms: _419  and  _421
REMARK  183  A    between atoms: _421  and  _422
REMARK  184  A    between atoms: _421  and  _424
REMARK  185  A    between atoms: _424  and  _425
REMARK  186  A    between atoms: _425  and  _426
REMARK  187  A    between atoms: _429  and  _431
REMARK  188  A    between atoms: _431  and  _432
REMARK  189  A    between atoms: _431  and  _434
REMARK  190  A    between atoms: _434  and  _435
REMARK  191  A    between atoms: _438  and  _440
REMARK  192  A    between atoms: _440  and  _441
REMARK  193  A    between atoms: _440  and  _443
REMARK  194  A    between atoms: _443  and  _444
REMARK  195  A    between atoms: _450  and  _452
REMARK  196  A    between atoms: _452  and  _453
REMARK  197  A    between atoms: _452  and  _455
REMARK  198  A    between atoms: _455  and  _456
REMARK  199  A    between atoms: _459  and  _461
REMARK  200  A    between atoms: _461  and  _462
REMARK  201  A    between atoms: _461  and  _464
REMARK  202  A    between atoms: _464  and  _465
REMARK  203  A    between atoms: _465  and  _466
REMARK  204  A    between atoms: _468  and  _470
REMARK  205  A    between atoms: _470  and  _471
REMARK  206  A    between atoms: _470  and  _473
REMARK  207  A    between atoms: _473  and  _474
REMARK  208  A    between atoms: _477  and  _479
REMARK  209  A    between atoms: _479  and  _480
REMARK  210  A    between atoms: _479  and  _482
REMARK  211  A    between atoms: _482  and  _483
REMARK  212  A    between atoms: _486  and  _488
REMARK  213  A    between atoms: _488  and  _489
REMARK  214  A    between atoms: _488  and  _491
REMARK  215  A    between atoms: _491  and  _492
REMARK  216  A    between atoms: _492  and  _493
REMARK  217  A    between atoms: _495  and  _497
REMARK  218  A    between atoms: _497  and  _498
REMARK  219  A    between atoms: _497  and  _500
REMARK  220  A    between atoms: _500  and  _501
REMARK  221  A    between atoms: _503  and  _505
REMARK  222  A    between atoms: _505  and  _506
REMARK  223  A    between atoms: _505  and  _508
REMARK  224  A    between atoms: _508  and  _509
REMARK  225  A    between atoms: _509  and  _510
REMARK  226  A    between atoms: _510  and  _511
REMARK  227  A    between atoms: _511  and  _512
REMARK  228  A    between atoms: _516  and  _518
REMARK  229  A    between atoms: _518  and  _519
REMARK  230  A    between atoms: _521  and  _523
REMARK  231  A    between atoms: _523  and  _524
REMARK  232  A    between atoms: _523  and  _526
REMARK  233  A    between atoms: _526  and  _527
REMARK  234  A    between atoms: _527  and  _528
REMARK  235  A    between atoms: _530  and  _532
REMARK  236  A    between atoms: _532  and  _533
REMARK  237  A    between atoms: _532  and  _535
REMARK  238  A    between atoms: _535  and  _536
REMARK  239  A    between atoms: _536  and  _537
REMARK  240  A    between atoms: _540  and  _542
REMARK  241  A    between atoms: _542  and  _543
REMARK  242  A    between atoms: _542  and  _545
REMARK  243  A    between atoms: _545  and  _546
REMARK  244  A    between atoms: _551  and  _553
REMARK  245  A    between atoms: _553  and  _554
REMARK  246  A    between atoms: _553  and  _556
REMARK  247  A    between atoms: _556  and  _557
REMARK  248  A    between atoms: _560  and  _562
REMARK  249  A    between atoms: _562  and  _563
REMARK  250  A    between atoms: _562  and  _565
REMARK  251  A    between atoms: _565  and  _566
REMARK  252  A    between atoms: _571  and  _572
REMARK  253  A    between atoms: _574  and  _576
REMARK  254  A    between atoms: _576  and  _577
REMARK  255  A    between atoms: _576  and  _579
REMARK  256  A    between atoms: _579  and  _580
REMARK  257  A    between atoms: _582  and  _584
REMARK  258  A    between atoms: _584  and  _585
REMARK  259  A    between atoms: _584  and  _587
REMARK  260  A    between atoms: _587  and  _588
REMARK  261  A    between atoms: _588  and  _589
REMARK  262  A    between atoms: _591  and  _593
REMARK  263  A    between atoms: _593  and  _594
REMARK  264  A    between atoms: _593  and  _596
REMARK  265  A    between atoms: _596  and  _597
REMARK  266  A    between atoms: _597  and  _598
REMARK  267  A    between atoms: _598  and  _599
REMARK  268  A    between atoms: _599  and  _600
REMARK  269  A    between atoms: _604  and  _606
REMARK  270  A    between atoms: _606  and  _607
REMARK  271  A    between atoms: _606  and  _609
REMARK  272  A    between atoms: _612  and  _614
REMARK  273  A    between atoms: _614  and  _615
REMARK  274  A    between atoms: _614  and  _617
REMARK  275  A    between atoms: _617  and  _618
REMARK  276  A    between atoms: _621  and  _623
REMARK  277  A    between atoms: _623  and  _624
REMARK  278  A    between atoms: _623  and  _626
REMARK  279  A    between atoms: _626  and  _627
REMARK  280  A    between atoms: _630  and  _632
REMARK  281  A    between atoms: _632  and  _633
REMARK  282  A    between atoms: _632  and  _635
REMARK  283  A    between atoms: _635  and  _636
REMARK                            x       y       z     vdW  Elec       q    Type
REMARK                         _______ _______ _______ _____ _____    ______ ____
ROOT
ATOM      1  CA  LEU A   1     -36.700  -7.014  17.088  0.00  0.00    +0.133 C 
ENDROOT
BRANCH   1   2
ATOM      2  N   LEU A   1     -36.409  -8.034  16.070  0.00  0.00    -0.239 NA
ATOM      3  H   LEU A   1     -36.499  -7.792  15.062  0.00  0.00    +0.142 HD
ENDBRANCH   1   2
BRANCH   1   4
ATOM      4  C   LEU A   1     -37.927  -7.422  17.920  0.00  0.00    +0.224 C 
ATOM      5  O   LEU A   1     -37.941  -7.261  19.140  0.00  0.00    -0.287 OA
ENDBRANCH   1   4
BRANCH   1   6
ATOM      6  CB  LEU A   1     -36.862  -5.620  16.439  0.00  0.00    +0.025 C 
BRANCH   6   7
ATOM      7  CG  LEU A   1     -36.929  -4.368  17.304  0.00  0.00    +0.002 C 
ATOM      8  CD2 LEU A   1     -35.778  -4.289  18.324  0.00  0.00    +0.000 C 
ATOM      9  CD1 LEU A   1     -36.988  -3.102  16.442  0.00  0.00    +0.000 C 
ENDBRANCH   6   7
ENDBRANCH   1   6
TORSDOF 4
REMARK  Name = ../refined-set-2016/2p15/2p15_pocket.pdb
REMARK  283 active torsions:
REMARK  status: ('A' for Active; 'I' for Inactive)
REMARK    1  A    between atoms: _1  and  _3
REMARK    2  A    between atoms: _3  and  _4
REMARK    3  A    between atoms: _3  and  _6
REMARK    4  A    between atoms: _6  and  _7
REMARK    5  A    between atoms: _10  and  _12
REMARK    6  A    between atoms: _12  and  _13
REMARK    7  A    between atoms: _12  and  _15
REMARK    8  A    between atoms: _15  and  _16
REMARK    9  A    between atoms: _19  and  _21
REMARK   10  A    between atoms: _21  and  _22
REMARK   11  A    between atoms: _21  and  _24
REMARK   12  A    between atoms: _24  and  _25
REMARK   13  A    between atoms: _31  and  _33
REMARK   14  A    between atoms: _33  and  _34
REMARK   15  A    between atoms: _33  and  _36
REMARK   16  A    between atoms: _36  and  _37
REMARK   17  A    between atoms: _39  and  _41
REMARK   18  A    between atoms: _41  and  _42
REMARK   19  A    between atoms: _41  and  _44
REMARK   20  A    between atoms: _44  and  _45
REMARK   21  A    between atoms: _45  and  _46
REMARK   22  A    between atoms: _49  and  _51
REMARK   23  A    between atoms: _51  and  _52
REMARK   24  A    between atoms: _51  and  _54
REMARK   25  A    between atoms: _54  and  _55
REMARK   26  A    between atoms: _55  and  _56
REMARK   27  A    between atoms: _58  and  _60
REMARK   28  A    between atoms: _60  and  _61
REMARK   29  A    between atoms: _60  and  _63
REMARK   30  A    between atoms: _63  and  _64
REMARK   31  A    between atoms: _64  and  _65
REMARK   32  A    between atoms: _67  and  _69
REMARK   33  A    between atoms: _69  and  _70
REMARK   34  A    between atoms: _69  and  _72
REMARK   35  A    between atoms: _72  and  _73
REMARK   36  A    between atoms: _76  and  _78
REMARK   37  A    between atoms: _78  and  _79
REMARK   38  A    between atoms: _78  and  _81
REMARK   39  A    between atoms: _81  and  _82
REMARK   40  A    between atoms: _85  and  _87
REMARK   41  A    between atoms: _87  and  _88
REMARK   42  A    between atoms: _87  and  _90
REMARK   43  A    between atoms: _90  and  _91
REMARK   44  A    between atoms: _94  and  _96
REMARK   45  A    between atoms: _96  and  _97
REMARK   46  A    between atoms: _96  and  _99
REMARK   47  A    between atoms: _99  and  _100
REMARK   48  A    between atoms: _105  and  _107
REMARK   49  A    between atoms: _107  and  _108
REMARK   50  A    between atoms: _107  and  _110
REMARK   51  A    between atoms: _110  and  _111
REMARK   52  A    between atoms: _114  and  _116
REMARK   53  A    between atoms: _116  and  _117
REMARK   54  A    between atoms: _120  and  _122
REMARK   55  A    between atoms: _122  and  _123
REMARK   56  A    between atoms: _122  and  _125
REMARK   57  A    between atoms: _125  and  _126
REMARK   58  A    between atoms: _129  and  _131
REMARK   59  A    between atoms: _131  and  _132
REMARK   60  A    between atoms: _131  and  _134
REMARK   61  A    between atoms: _134  and  _135
REMARK   62  A    between atoms: _135  and  _136
REMARK   63  A    between atoms: _136  and  _137
REMARK   64  A    between atoms: _146  and  _148
REMARK   65  A    between atoms: _148  and  _149
REMARK   66  A    between atoms: _148  and  _151
REMARK   67  A    between atoms: _151  and  _152
REMARK   68  A    between atoms: _152  and  _153
REMARK   69  A    between atoms: _156  and  _158
REMARK   70  A    between atoms: _158  and  _159
REMARK   71  A    between atoms: _158  and  _161
REMARK   72  A    between atoms: _161  and  _162
REMARK   73  A    between atoms: _165  and  _167
REMARK   74  A    between atoms: _167  and  _168
REMARK   75  A    between atoms: _167  and  _170
REMARK   76  A    between atoms: _170  and  _171
REMARK   77  A    between atoms: _171  and  _172
REMARK   78  A    between atoms: _174  and  _176
REMARK   79  A    between atoms: _176  and  _177
REMARK   80  A    between atoms: _176  and  _179
REMARK   81  A    between atoms: _179  and  _180
REMARK   82  A    between atoms: _190  and  _192
REMARK   83  A    between atoms: _192  and  _193
REMARK   84  A    between atoms: _192  and  _195
REMARK   85  A    between atoms: _195  and  _196
REMARK   86  A    between atoms: _199  and  _201
REMARK   87  A    between atoms: _201  and  _202
REMARK   88  A    between atoms: _201  and  _204
REMARK   89  A    between atoms: _204  and  _205
REMARK   90  A    between atoms: _205  and  _206
REMARK   91  A    between atoms: _209  and  _211
REMARK   92  A    between atoms: _211  and  _212
REMARK   93  A    between atoms: _211  and  _214
REMARK   94  A    between atoms: _214  and  _215
REMARK   95  A    between atoms: _218  and  _220
REMARK   96  A    between atoms: _220  and  _221
REMARK   97  A    between atoms: _220  and  _223
REMARK   98  A    between atoms: _223  and  _224
REMARK   99  A    between atoms: _227  and  _229
REMARK  100  A    between atoms: _229  and  _230
REMARK  101  A    between atoms: _229  and  _232
REMARK  102  A    between atoms: _232  and  _233
REMARK  103  A    between atoms: _233  and  _234
REMARK  104  A    between atoms: _236  and  _238
REMARK  105  A    between atoms: _238  and  _239
REMARK  106  A    between atoms: _238  and  _241
REMARK  107  A    between atoms: _241  and  _242
REMARK  108  A    between atoms: _245  and  _247
REMARK  109  A    between atoms: _247  and  _248
REMARK  110  A    between atoms: _250  and  _252
REMARK  111  A    between atoms: _252  and  _253
REMARK  112  A    between atoms: _252  and  _255
REMARK  113  A    between atoms: _255  and  _256
REMARK  114  A    between atoms: _259  and  _261
REMARK  115  A    between atoms: _261  and  _262
REMARK  116  A    between atoms: _261  and  _264
REMARK  117  A    between atoms: _267  and  _269
REMARK  118  A    between atoms: _269  and  _270
REMARK  119  A    between atoms: _269  and  _272
REMARK  120  A    between atoms: _272  and  _273
REMARK  121  A    between atoms: _273  and  _274
REMARK  122  A    between atoms: _274  and  _275
REMARK  123  A    between atoms: _284  and  _286
REMARK  124  A    between atoms: _286  and  _287
REMARK  125  A    between atoms: _286  and  _289
REMARK  126  A    between atoms: _289  and  _290
REMARK  127  A    between atoms: _293  and  _295
REMARK  128  A    between atoms: _295  and  _296
REMARK  129  A    between atoms: _295  and  _298
REMARK  130  A    between atoms: _298  and  _299
REMARK  131  A    between atoms: _302  and  _304
REMARK  132  A    between atoms: _304  and  _305
REMARK  133  A    between atoms: _304  and  _307
REMARK  134  A    between atoms: _307  and  _308
REMARK  135  A    between atoms: _314  and  _316
REMARK  136  A    between atoms: _316  and  _317
REMARK  137  A    between atoms: _320  and  _322
REMARK  138  A    between atoms: _322  and  _323
REMARK  139  A    between atoms: _322  and  _325
REMARK  140  A    between atoms: _325  and  _326
REMARK  141  A    between atoms: _329  and  _331
REMARK  142  A    between atoms: _331  and  _332
REMARK  143  A    between atoms: _331  and  _334
REMARK  144  A    between atoms: _334  and  _335
REMARK  145  A    between atoms: _338  and  _340
REMARK  146  A    between atoms: _340  and  _341
REMARK  147  A    between atoms: _340  and  _343
REMARK  148  A    between atoms: _343  and  _344
REMARK  149  A    between atoms: _347  and  _349
REMARK  150  A    between atoms: _349  and  _350
REMARK  151  A    between atoms: _349  and  _352
REMARK  152  A    between atoms: _352  and  _353
REMARK  153  A    between atoms: _353  and  _354
REMARK  154  A    between atoms: _359  and  _361
REMARK  155  A    between atoms: _361  and  _362
REMARK  156  A    between atoms: _361  and  _364
REMARK  157  A    between atoms: _364  and  _365
REMARK  158  A    between atoms: _365  and  _366
REMARK  159  A    between atoms: _366  and  _367
REMARK  160  A    between atoms: _367  and  _368
REMARK  161  A    between atoms: _372  and  _374
REMARK  162  A    between atoms: _374  and  _375
REMARK  163  A    between atoms: _374  and  _377
REMARK  164  A    between atoms: _379  and  _381
REMARK  165  A    between atoms: _381  and  _382
REMARK  166  A    between atoms: _381  and  _384
REMARK  167  A    between atoms: _387  and  _389
REMARK  168  A    between atoms: _389  and  _390
REMARK  169  A    between atoms: _389  and  _392
REMARK  170  A    between atoms: _392  and  _393
REMARK  171  A    between atoms: _393  and  _394
REMARK  172  A    between atoms: _397  and  _399
REMARK  173  A    between atoms: _399  and  _400
REMARK  174  A    between atoms: _402  and  _404
REMARK  175  A    between atoms: _404  and  _405
REMARK  176  A    between atoms: _404  and  _407
REMARK  177  A    between atoms: _407  and  _408
REMARK  178  A    between atoms: _408  and  _409
REMARK  179  A    between atoms: _411  and  _413
REMARK  180  A    between atoms: _413  and  _414
REMARK  181  A    between atoms: _413  and  _416
REMARK  182  A    between atoms: _419  and  _421
REMARK  183  A    between atoms: _421  and  _422
REMARK  184  A    between atoms: _421  and  _424
REMARK  185  A    between atoms: _424  and  _425
REMARK  186  A    between atoms: _425  and  _426
REMARK  187  A    between atoms: _429  and  _431
REMARK  188  A    between atoms: _431  and  _432
REMARK  189  A    between atoms: _431  and  _434
REMARK  190  A    between atoms: _434  and  _435
REMARK  191  A    between atoms: _438  and  _440
REMARK  192  A    between atoms: _440  and  _441
REMARK  193  A    between atoms: _440  and  _443
REMARK  194  A    between atoms: _443  and  _444
REMARK  195  A    between atoms: _450  and  _452
REMARK  196  A    between atoms: _452  and  _453
REMARK  197  A    between atoms: _452  and  _455
REMARK  198  A    between atoms: _455  and  _456
REMARK  199  A    between atoms: _459  and  _461
REMARK  200  A    between atoms: _461  and  _462
REMARK  201  A    between atoms: _461  and  _464
REMARK  202  A    between atoms: _464  and  _465
REMARK  203  A    between atoms: _465  and  _466
REMARK  204  A    between atoms: _468  and  _470
REMARK  205  A    between atoms: _470  and  _471
REMARK  206  A    between atoms: _470  and  _473
REMARK  207  A    between atoms: _473  and  _474
REMARK  208  A    between atoms: _477  and  _479
REMARK  209  A    between atoms: _479  and  _480
REMARK  210  A    between atoms: _479  and  _482
REMARK  211  A    between atoms: _482  and  _483
REMARK  212  A    between atoms: _486  and  _488
REMARK  213  A    between atoms: _488  and  _489
REMARK  214  A    between atoms: _488  and  _491
REMARK  215  A    between atoms: _491  and  _492
REMARK  216  A    between atoms: _492  and  _493
REMARK  217  A    between atoms: _495  and  _497
REMARK  218  A    between atoms: _497  and  _498
REMARK  219  A    between atoms: _497  and  _500
REMARK  220  A    between atoms: _500  and  _501
REMARK  221  A    between atoms: _503  and  _505
REMARK  222  A    between atoms: _505  and  _506
REMARK  223  A    between atoms: _505  and  _508
REMARK  224  A    between atoms: _508  and  _509
REMARK  225  A    between atoms: _509  and  _510
REMARK  226  A    between atoms: _510  and  _511
REMARK  227  A    between atoms: _511  and  _512
REMARK  228  A    between atoms: _516  and  _518
REMARK  229  A    between atoms: _518  and  _519
REMARK  230  A    between atoms: _521  and  _523
REMARK  231  A    between atoms: _523  and  _524
REMARK  232  A    between atoms: _523  and  _526
REMARK  233  A    between atoms: _526  and  _527
REMARK  234  A    between atoms: _527  and  _528
REMARK  235  A    between atoms: _530  and  _532
REMARK  236  A    between atoms: _532  and  _533
REMARK  237  A    between atoms: _532  and  _535
REMARK  238  A    between atoms: _535  and  _536
REMARK  239  A    between atoms: _536  and  _537
REMARK  240  A    between atoms: _540  and  _542
REMARK  241  A    between atoms: _542  and  _543
REMARK  242  A    between atoms: _542  and  _545
REMARK  243  A    between atoms: _545  and  _546
REMARK  244  A    between atoms: _551  and  _553
REMARK  245  A    between atoms: _553  and  _554
REMARK  246  A    between atoms: _553  and  _556
REMARK  247  A    between atoms: _556  and  _557
REMARK  248  A    between atoms: _560  and  _562
REMARK  249  A    between atoms: _562  and  _563
REMARK  250  A    between atoms: _562  and  _565
REMARK  251  A    between atoms: _565  and  _566
REMARK  252  A    between atoms: _571  and  _572
REMARK  253  A    between atoms: _574  and  _576
REMARK  254  A    between atoms: _576  and  _577
REMARK  255  A    between atoms: _576  and  _579
REMARK  256  A    between atoms: _579  and  _580
REMARK  257  A    between atoms: _582  and  _584
REMARK  258  A    between atoms: _584  and  _585
REMARK  259  A    between atoms: _584  and  _587
REMARK  260  A    between atoms: _587  and  _588
REMARK  261  A    between atoms: _588  and  _589
REMARK  262  A    between atoms: _591  and  _593
REMARK  263  A    between atoms: _593  and  _594
REMARK  264  A    between atoms: _593  and  _596
REMARK  265  A    between atoms: _596  and  _597
REMARK  266  A    between atoms: _597  and  _598
REMARK  267  A    between atoms: _598  and  _599
REMARK  268  A    between atoms: _599  and  _600
REMARK  269  A    between atoms: _604  and  _606
REMARK  270  A    between atoms: _606  and  _607
REMARK  271  A    between atoms: _606  and  _609
REMARK  272  A    between atoms: _612  and  _614
REMARK  273  A    between atoms: _614  and  _615
REMARK  274  A    between atoms: _614  and  _617
REMARK  275  A    between atoms: _617  and  _618
REMARK  276  A    between atoms: _621  and  _623
REMARK  277  A    between atoms: _623  and  _624
REMARK  278  A    between atoms: _623  and  _626
REMARK  279  A    between atoms: _626  and  _627
REMARK  280  A    between atoms: _630  and  _632
REMARK  281  A    between atoms: _632  and  _633
REMARK  282  A    between atoms: _632  and  _635
REMARK  283  A    between atoms: _635  and  _636
REMARK                            x       y       z     vdW  Elec       q    Type
REMARK                         _______ _______ _______ _____ _____    ______ ____
ROOT
ATOM      1  CA  LEU A   1     -38.953  -7.401  22.691  0.00  0.00    +0.133 C 
ENDROOT
BRANCH   1   2
ATOM      2  N   LEU A   1     -37.889  -8.005  21.884  0.00  0.00    -0.239 NA
ATOM      3  H   LEU A   1     -37.927  -7.917  20.848  0.00  0.00    +0.142 HD
ENDBRANCH   1   2
BRANCH   1   4
ATOM      4  C   LEU A   1     -39.777  -8.457  23.476  0.00  0.00    +0.224 C 
ATOM      5  O   LEU A   1     -39.949  -8.327  24.695  0.00  0.00    -0.287 OA
ENDBRANCH   1   4
BRANCH   1   6
ATOM      6  CB  LEU A   1     -39.824  -6.457  21.838  0.00  0.00    +0.025 C 
BRANCH   6   7
ATOM      7  CG  LEU A   1     -41.066  -5.810  22.447  0.00  0.00    +0.002 C 
ATOM      8  CD2 LEU A   1     -40.686  -4.944  23.665  0.00  0.00    +0.000 C 
ATOM      9  CD1 LEU A   1     -41.917  -5.017  21.399  0.00  0.00    +0.000 C 
ENDBRANCH   6   7
ENDBRANCH   1   6
TORSDOF 4
REMARK  Name = ../refined-set-2016/2p15/2p15_pocket.pdb
REMARK  283 active torsions:
REMARK  status: ('A' for Active; 'I' for Inactive)
REMARK    1  A    between atoms: _1  and  _3
REMARK    2  A    between atoms: _3  and  _4
REMARK    3  A    between atoms: _3  and  _6
REMARK    4  A    between atoms: _6  and  _7
REMARK    5  A    between atoms: _10  and  _12
REMARK    6  A    between atoms: _12  and  _13
REMARK    7  A    between atoms: _12  and  _15
REMARK    8  A    between atoms: _15  and  _16
REMARK    9  A    between atoms: _19  and  _21
REMARK   10  A    between atoms: _21  and  _22
REMARK   11  A    between atoms: _21  and  _24
REMARK   12  A    between atoms: _24  and  _25
REMARK   13  A    between atoms: _31  and  _33
REMARK   14  A    between atoms: _33  and  _34
REMARK   15  A    between atoms: _33  and  _36
REMARK   16  A    between atoms: _36  and  _37
REMARK   17  A    between atoms: _39  and  _41
REMARK   18  A    between atoms: _41  and  _42
REMARK   19  A    between atoms: _41  and  _44
REMARK   20  A    between atoms: _44  and  _45
REMARK   21  A    between atoms: _45  and  _46
REMARK   22  A    between atoms: _49  and  _51
REMARK   23  A    between atoms: _51  and  _52
REMARK   24  A    between atoms: _51  and  _54
REMARK   25  A    between atoms: _54  and  _55
REMARK   26  A    between atoms: _55  and  _56
REMARK   27  A    between atoms: _58  and  _60
REMARK   28  A    between atoms: _60  and  _61
REMARK   29  A    between atoms: _60  and  _63
REMARK   30  A    between atoms: _63  and  _64
REMARK   31  A    between atoms: _64  and  _65
REMARK   32  A    between atoms: _67  and  _69
REMARK   33  A    between atoms: _69  and  _70
REMARK   34  A    between atoms: _69  and  _72
REMARK   35  A    between atoms: _72  and  _73
REMARK   36  A    between atoms: _76  and  _78
REMARK   37  A    between atoms: _78  and  _79
REMARK   38  A    between atoms: _78  and  _81
REMARK   39  A    between atoms: _81  and  _82
REMARK   40  A    between atoms: _85  and  _87
REMARK   41  A    between atoms: _87  and  _88
REMARK   42  A    between atoms: _87  and  _90
REMARK   43  A    between atoms: _90  and  _91
REMARK   44  A    between atoms: _94  and  _96
REMARK   45  A    between atoms: _96  and  _97
REMARK   46  A    between atoms: _96  and  _99
REMARK   47  A    between atoms: _99  and  _100
REMARK   48  A    between atoms: _105  and  _107
REMARK   49  A    between atoms: _107  and  _108
REMARK   50  A    between atoms: _107  and  _110
REMARK   51  A    between atoms: _110  and  _111
REMARK   52  A    between atoms: _114  and  _116
REMARK   53  A    between atoms: _116  and  _117
REMARK   54  A    between atoms: _120  and  _122
REMARK   55  A    between atoms: _122  and  _123
REMARK   56  A    between atoms: _122  and  _125
REMARK   57  A    between atoms: _125  and  _126
REMARK   58  A    between atoms: _129  and  _131
REMARK   59  A    between atoms: _131  and  _132
REMARK   60  A    between atoms: _131  and  _134
REMARK   61  A    between atoms: _134  and  _135
REMARK   62  A    between atoms: _135  and  _136
REMARK   63  A    between atoms: _136  and  _137
REMARK   64  A    between atoms: _146  and  _148
REMARK   65  A    between atoms: _148  and  _149
REMARK   66  A    between atoms: _148  and  _151
REMARK   67  A    between atoms: _151  and  _152
REMARK   68  A    between atoms: _152  and  _153
REMARK   69  A    between atoms: _156  and  _158
REMARK   70  A    between atoms: _158  and  _159
REMARK   71  A    between atoms: _158  and  _161
REMARK   72  A    between atoms: _161  and  _162
REMARK   73  A    between atoms: _165  and  _167
REMARK   74  A    between atoms: _167  and  _168
REMARK   75  A    between atoms: _167  and  _170
REMARK   76  A    between atoms: _170  and  _171
REMARK   77  A    between atoms: _171  and  _172
REMARK   78  A    between atoms: _174  and  _176
REMARK   79  A    between atoms: _176  and  _177
REMARK   80  A    between atoms: _176  and  _179
REMARK   81  A    between atoms: _179  and  _180
REMARK   82  A    between atoms: _190  and  _192
REMARK   83  A    between atoms: _192  and  _193
REMARK   84  A    between atoms: _192  and  _195
REMARK   85  A    between atoms: _195  and  _196
REMARK   86  A    between atoms: _199  and  _201
REMARK   87  A    between atoms: _201  and  _202
REMARK   88  A    between atoms: _201  and  _204
REMARK   89  A    between atoms: _204  and  _205
REMARK   90  A    between atoms: _205  and  _206
REMARK   91  A    between atoms: _209  and  _211
REMARK   92  A    between atoms: _211  and  _212
REMARK   93  A    between atoms: _211  and  _214
REMARK   94  A    between atoms: _214  and  _215
REMARK   95  A    between atoms: _218  and  _220
REMARK   96  A    between atoms: _220  and  _221
REMARK   97  A    between atoms: _220  and  _223
REMARK   98  A    between atoms: _223  and  _224
REMARK   99  A    between atoms: _227  and  _229
REMARK  100  A    between atoms: _229  and  _230
REMARK  101  A    between atoms: _229  and  _232
REMARK  102  A    between atoms: _232  and  _233
REMARK  103  A    between atoms: _233  and  _234
REMARK  104  A    between atoms: _236  and  _238
REMARK  105  A    between atoms: _238  and  _239
REMARK  106  A    between atoms: _238  and  _241
REMARK  107  A    between atoms: _241  and  _242
REMARK  108  A    between atoms: _245  and  _247
REMARK  109  A    between atoms: _247  and  _248
REMARK  110  A    between atoms: _250  and  _252
REMARK  111  A    between atoms: _252  and  _253
REMARK  112  A    between atoms: _252  and  _255
REMARK  113  A    between atoms: _255  and  _256
REMARK  114  A    between atoms: _259  and  _261
REMARK  115  A    between atoms: _261  and  _262
REMARK  116  A    between atoms: _261  and  _264
REMARK  117  A    between atoms: _267  and  _269
REMARK  118  A    between atoms: _269  and  _270
REMARK  119  A    between atoms: _269  and  _272
REMARK  120  A    between atoms: _272  and  _273
REMARK  121  A    between atoms: _273  and  _274
REMARK  122  A    between atoms: _274  and  _275
REMARK  123  A    between atoms: _284  and  _286
REMARK  124  A    between atoms: _286  and  _287
REMARK  125  A    between atoms: _286  and  _289
REMARK  126  A    between atoms: _289  and  _290
REMARK  127  A    between atoms: _293  and  _295
REMARK  128  A    between atoms: _295  and  _296
REMARK  129  A    between atoms: _295  and  _298
REMARK  130  A    between atoms: _298  and  _299
REMARK  131  A    between atoms: _302  and  _304
REMARK  132  A    between atoms: _304  and  _305
REMARK  133  A    between atoms: _304  and  _307
REMARK  134  A    between atoms: _307  and  _308
REMARK  135  A    between atoms: _314  and  _316
REMARK  136  A    between atoms: _316  and  _317
REMARK  137  A    between atoms: _320  and  _322
REMARK  138  A    between atoms: _322  and  _323
REMARK  139  A    between atoms: _322  and  _325
REMARK  140  A    between atoms: _325  and  _326
REMARK  141  A    between atoms: _329  and  _331
REMARK  142  A    between atoms: _331  and  _332
REMARK  143  A    between atoms: _331  and  _334
REMARK  144  A    between atoms: _334  and  _335
REMARK  145  A    between atoms: _338  and  _340
REMARK  146  A    between atoms: _340  and  _341
REMARK  147  A    between atoms: _340  and  _343
REMARK  148  A    between atoms: _343  and  _344
REMARK  149  A    between atoms: _347  and  _349
REMARK  150  A    between atoms: _349  and  _350
REMARK  151  A    between atoms: _349  and  _352
REMARK  152  A    between atoms: _352  and  _353
REMARK  153  A    between atoms: _353  and  _354
REMARK  154  A    between atoms: _359  and  _361
REMARK  155  A    between atoms: _361  and  _362
REMARK  156  A    between atoms: _361  and  _364
REMARK  157  A    between atoms: _364  and  _365
REMARK  158  A    between atoms: _365  and  _366
REMARK  159  A    between atoms: _366  and  _367
REMARK  160  A    between atoms: _367  and  _368
REMARK  161  A    between atoms: _372  and  _374
REMARK  162  A    between atoms: _374  and  _375
REMARK  163  A    between atoms: _374  and  _377
REMARK  164  A    between atoms: _379  and  _381
REMARK  165  A    between atoms: _381  and  _382
REMARK  166  A    between atoms: _381  and  _384
REMARK  167  A    between atoms: _387  and  _389
REMARK  168  A    between atoms: _389  and  _390
REMARK  169  A    between atoms: _389  and  _392
REMARK  170  A    between atoms: _392  and  _393
REMARK  171  A    between atoms: _393  and  _394
REMARK  172  A    between atoms: _397  and  _399
REMARK  173  A    between atoms: _399  and  _400
REMARK  174  A    between atoms: _402  and  _404
REMARK  175  A    between atoms: _404  and  _405
REMARK  176  A    between atoms: _404  and  _407
REMARK  177  A    between atoms: _407  and  _408
REMARK  178  A    between atoms: _408  and  _409
REMARK  179  A    between atoms: _411  and  _413
REMARK  180  A    between atoms: _413  and  _414
REMARK  181  A    between atoms: _413  and  _416
REMARK  182  A    between atoms: _419  and  _421
REMARK  183  A    between atoms: _421  and  _422
REMARK  184  A    between atoms: _421  and  _424
REMARK  185  A    between atoms: _424  and  _425
REMARK  186  A    between atoms: _425  and  _426
REMARK  187  A    between atoms: _429  and  _431
REMARK  188  A    between atoms: _431  and  _432
REMARK  189  A    between atoms: _431  and  _434
REMARK  190  A    between atoms: _434  and  _435
REMARK  191  A    between atoms: _438  and  _440
REMARK  192  A    between atoms: _440  and  _441
REMARK  193  A    between atoms: _440  and  _443
REMARK  194  A    between atoms: _443  and  _444
REMARK  195  A    between atoms: _450  and  _452
REMARK  196  A    between atoms: _452  and  _453
REMARK  197  A    between atoms: _452  and  _455
REMARK  198  A    between atoms: _455  and  _456
REMARK  199  A    between atoms: _459  and  _461
REMARK  200  A    between atoms: _461  and  _462
REMARK  201  A    between atoms: _461  and  _464
REMARK  202  A    between atoms: _464  and  _465
REMARK  203  A    between atoms: _465  and  _466
REMARK  204  A    between atoms: _468  and  _470
REMARK  205  A    between atoms: _470  and  _471
REMARK  206  A    between atoms: _470  and  _473
REMARK  207  A    between atoms: _473  and  _474
REMARK  208  A    between atoms: _477  and  _479
REMARK  209  A    between atoms: _479  and  _480
REMARK  210  A    between atoms: _479  and  _482
REMARK  211  A    between atoms: _482  and  _483
REMARK  212  A    between atoms: _486  and  _488
REMARK  213  A    between atoms: _488  and  _489
REMARK  214  A    between atoms: _488  and  _491
REMARK  215  A    between atoms: _491  and  _492
REMARK  216  A    between atoms: _492  and  _493
REMARK  217  A    between atoms: _495  and  _497
REMARK  218  A    between atoms: _497  and  _498
REMARK  219  A    between atoms: _497  and  _500
REMARK  220  A    between atoms: _500  and  _501
REMARK  221  A    between atoms: _503  and  _505
REMARK  222  A    between atoms: _505  and  _506
REMARK  223  A    between atoms: _505  and  _508
REMARK  224  A    between atoms: _508  and  _509
REMARK  225  A    between atoms: _509  and  _510
REMARK  226  A    between atoms: _510  and  _511
REMARK  227  A    between atoms: _511  and  _512
REMARK  228  A    between atoms: _516  and  _518
REMARK  229  A    between atoms: _518  and  _519
REMARK  230  A    between atoms: _521  and  _523
REMARK  231  A    between atoms: _523  and  _524
REMARK  232  A    between atoms: _523  and  _526
REMARK  233  A    between atoms: _526  and  _527
REMARK  234  A    between atoms: _527  and  _528
REMARK  235  A    between atoms: _530  and  _532
REMARK  236  A    between atoms: _532  and  _533
REMARK  237  A    between atoms: _532  and  _535
REMARK  238  A    between atoms: _535  and  _536
REMARK  239  A    between atoms: _536  and  _537
REMARK  240  A    between atoms: _540  and  _542
REMARK  241  A    between atoms: _542  and  _543
REMARK  242  A    between atoms: _542  and  _545
REMARK  243  A    between atoms: _545  and  _546
REMARK  244  A    between atoms: _551  and  _553
REMARK  245  A    between atoms: _553  and  _554
REMARK  246  A    between atoms: _553  and  _556
REMARK  247  A    between atoms: _556  and  _557
REMARK  248  A    between atoms: _560  and  _562
REMARK  249  A    between atoms: _562  and  _563
REMARK  250  A    between atoms: _562  and  _565
REMARK  251  A    between atoms: _565  and  _566
REMARK  252  A    between atoms: _571  and  _572
REMARK  253  A    between atoms: _574  and  _576
REMARK  254  A    between atoms: _576  and  _577
REMARK  255  A    between atoms: _576  and  _579
REMARK  256  A    between atoms: _579  and  _580
REMARK  257  A    between atoms: _582  and  _584
REMARK  258  A    between atoms: _584  and  _585
REMARK  259  A    between atoms: _584  and  _587
REMARK  260  A    between atoms: _587  and  _588
REMARK  261  A    between atoms: _588  and  _589
REMARK  262  A    between atoms: _591  and  _593
REMARK  263  A    between atoms: _593  and  _594
REMARK  264  A    between atoms: _593  and  _596
REMARK  265  A    between atoms: _596  and  _597
REMARK  266  A    between atoms: _597  and  _598
REMARK  267  A    between atoms: _598  and  _599
REMARK  268  A    between atoms: _599  and  _600
REMARK  269  A    between atoms: _604  and  _606
REMARK  270  A    between atoms: _606  and  _607
REMARK  271  A    between atoms: _606  and  _609
REMARK  272  A    between atoms: _612  and  _614
REMARK  273  A    between atoms: _614  and  _615
REMARK  274  A    between atoms: _614  and  _617
REMARK  275  A    between atoms: _617  and  _618
REMARK  276  A    between atoms: _621  and  _623
REMARK  277  A    between atoms: _623  and  _624
REMARK  278  A    between atoms: _623  and  _626
REMARK  279  A    between atoms: _626  and  _627
REMARK  280  A    between atoms: _630  and  _632
REMARK  281  A    between atoms: _632  and  _633
REMARK  282  A    between atoms: _632  and  _635
REMARK  283  A    between atoms: _635  and  _636
REMARK                            x       y       z     vdW  Elec       q    Type
REMARK                         _______ _______ _______ _____ _____    ______ ____
ROOT
ATOM      1  O   HOH     1     -26.061   1.776  19.609  0.00  0.00    +0.000 OA
ENDROOT
TORSDOF 0
REMARK  Name = ../refined-set-2016/2p15/2p15_pocket.pdb
REMARK  283 active torsions:
REMARK  status: ('A' for Active; 'I' for Inactive)
REMARK    1  A    between atoms: _1  and  _3
REMARK    2  A    between atoms: _3  and  _4
REMARK    3  A    between atoms: _3  and  _6
REMARK    4  A    between atoms: _6  and  _7
REMARK    5  A    between atoms: _10  and  _12
REMARK    6  A    between atoms: _12  and  _13
REMARK    7  A    between atoms: _12  and  _15
REMARK    8  A    between atoms: _15  and  _16
REMARK    9  A    between atoms: _19  and  _21
REMARK   10  A    between atoms: _21  and  _22
REMARK   11  A    between atoms: _21  and  _24
REMARK   12  A    between atoms: _24  and  _25
REMARK   13  A    between atoms: _31  and  _33
REMARK   14  A    between atoms: _33  and  _34
REMARK   15  A    between atoms: _33  and  _36
REMARK   16  A    between atoms: _36  and  _37
REMARK   17  A    between atoms: _39  and  _41
REMARK   18  A    between atoms: _41  and  _42
REMARK   19  A    between atoms: _41  and  _44
REMARK   20  A    between atoms: _44  and  _45
REMARK   21  A    between atoms: _45  and  _46
REMARK   22  A    between atoms: _49  and  _51
REMARK   23  A    between atoms: _51  and  _52
REMARK   24  A    between atoms: _51  and  _54
REMARK   25  A    between atoms: _54  and  _55
REMARK   26  A    between atoms: _55  and  _56
REMARK   27  A    between atoms: _58  and  _60
REMARK   28  A    between atoms: _60  and  _61
REMARK   29  A    between atoms: _60  and  _63
REMARK   30  A    between atoms: _63  and  _64
REMARK   31  A    between atoms: _64  and  _65
REMARK   32  A    between atoms: _67  and  _69
REMARK   33  A    between atoms: _69  and  _70
REMARK   34  A    between atoms: _69  and  _72
REMARK   35  A    between atoms: _72  and  _73
REMARK   36  A    between atoms: _76  and  _78
REMARK   37  A    between atoms: _78  and  _79
REMARK   38  A    between atoms: _78  and  _81
REMARK   39  A    between atoms: _81  and  _82
REMARK   40  A    between atoms: _85  and  _87
REMARK   41  A    between atoms: _87  and  _88
REMARK   42  A    between atoms: _87  and  _90
REMARK   43  A    between atoms: _90  and  _91
REMARK   44  A    between atoms: _94  and  _96
REMARK   45  A    between atoms: _96  and  _97
REMARK   46  A    between atoms: _96  and  _99
REMARK   47  A    between atoms: _99  and  _100
REMARK   48  A    between atoms: _105  and  _107
REMARK   49  A    between atoms: _107  and  _108
REMARK   50  A    between atoms: _107  and  _110
REMARK   51  A    between atoms: _110  and  _111
REMARK   52  A    between atoms: _114  and  _116
REMARK   53  A    between atoms: _116  and  _117
REMARK   54  A    between atoms: _120  and  _122
REMARK   55  A    between atoms: _122  and  _123
REMARK   56  A    between atoms: _122  and  _125
REMARK   57  A    between atoms: _125  and  _126
REMARK   58  A    between atoms: _129  and  _131
REMARK   59  A    between atoms: _131  and  _132
REMARK   60  A    between atoms: _131  and  _134
REMARK   61  A    between atoms: _134  and  _135
REMARK   62  A    between atoms: _135  and  _136
REMARK   63  A    between atoms: _136  and  _137
REMARK   64  A    between atoms: _146  and  _148
REMARK   65  A    between atoms: _148  and  _149
REMARK   66  A    between atoms: _148  and  _151
REMARK   67  A    between atoms: _151  and  _152
REMARK   68  A    between atoms: _152  and  _153
REMARK   69  A    between atoms: _156  and  _158
REMARK   70  A    between atoms: _158  and  _159
REMARK   71  A    between atoms: _158  and  _161
REMARK   72  A    between atoms: _161  and  _162
REMARK   73  A    between atoms: _165  and  _167
REMARK   74  A    between atoms: _167  and  _168
REMARK   75  A    between atoms: _167  and  _170
REMARK   76  A    between atoms: _170  and  _171
REMARK   77  A    between atoms: _171  and  _172
REMARK   78  A    between atoms: _174  and  _176
REMARK   79  A    between atoms: _176  and  _177
REMARK   80  A    between atoms: _176  and  _179
REMARK   81  A    between atoms: _179  and  _180
REMARK   82  A    between atoms: _190  and  _192
REMARK   83  A    between atoms: _192  and  _193
REMARK   84  A    between atoms: _192  and  _195
REMARK   85  A    between atoms: _195  and  _196
REMARK   86  A    between atoms: _199  and  _201
REMARK   87  A    between atoms: _201  and  _202
REMARK   88  A    between atoms: _201  and  _204
REMARK   89  A    between atoms: _204  and  _205
REMARK   90  A    between atoms: _205  and  _206
REMARK   91  A    between atoms: _209  and  _211
REMARK   92  A    between atoms: _211  and  _212
REMARK   93  A    between atoms: _211  and  _214
REMARK   94  A    between atoms: _214  and  _215
REMARK   95  A    between atoms: _218  and  _220
REMARK   96  A    between atoms: _220  and  _221
REMARK   97  A    between atoms: _220  and  _223
REMARK   98  A    between atoms: _223  and  _224
REMARK   99  A    between atoms: _227  and  _229
REMARK  100  A    between atoms: _229  and  _230
REMARK  101  A    between atoms: _229  and  _232
REMARK  102  A    between atoms: _232  and  _233
REMARK  103  A    between atoms: _233  and  _234
REMARK  104  A    between atoms: _236  and  _238
REMARK  105  A    between atoms: _238  and  _239
REMARK  106  A    between atoms: _238  and  _241
REMARK  107  A    between atoms: _241  and  _242
REMARK  108  A    between atoms: _245  and  _247
REMARK  109  A    between atoms: _247  and  _248
REMARK  110  A    between atoms: _250  and  _252
REMARK  111  A    between atoms: _252  and  _253
REMARK  112  A    between atoms: _252  and  _255
REMARK  113  A    between atoms: _255  and  _256
REMARK  114  A    between atoms: _259  and  _261
REMARK  115  A    between atoms: _261  and  _262
REMARK  116  A    between atoms: _261  and  _264
REMARK  117  A    between atoms: _267  and  _269
REMARK  118  A    between atoms: _269  and  _270
REMARK  119  A    between atoms: _269  and  _272
REMARK  120  A    between atoms: _272  and  _273
REMARK  121  A    between atoms: _273  and  _274
REMARK  122  A    between atoms: _274  and  _275
REMARK  123  A    between atoms: _284  and  _286
REMARK  124  A    between atoms: _286  and  _287
REMARK  125  A    between atoms: _286  and  _289
REMARK  126  A    between atoms: _289  and  _290
REMARK  127  A    between atoms: _293  and  _295
REMARK  128  A    between atoms: _295  and  _296
REMARK  129  A    between atoms: _295  and  _298
REMARK  130  A    between atoms: _298  and  _299
REMARK  131  A    between atoms: _302  and  _304
REMARK  132  A    between atoms: _304  and  _305
REMARK  133  A    between atoms: _304  and  _307
REMARK  134  A    between atoms: _307  and  _308
REMARK  135  A    between atoms: _314  and  _316
REMARK  136  A    between atoms: _316  and  _317
REMARK  137  A    between atoms: _320  and  _322
REMARK  138  A    between atoms: _322  and  _323
REMARK  139  A    between atoms: _322  and  _325
REMARK  140  A    between atoms: _325  and  _326
REMARK  141  A    between atoms: _329  and  _331
REMARK  142  A    between atoms: _331  and  _332
REMARK  143  A    between atoms: _331  and  _334
REMARK  144  A    between atoms: _334  and  _335
REMARK  145  A    between atoms: _338  and  _340
REMARK  146  A    between atoms: _340  and  _341
REMARK  147  A    between atoms: _340  and  _343
REMARK  148  A    between atoms: _343  and  _344
REMARK  149  A    between atoms: _347  and  _349
REMARK  150  A    between atoms: _349  and  _350
REMARK  151  A    between atoms: _349  and  _352
REMARK  152  A    between atoms: _352  and  _353
REMARK  153  A    between atoms: _353  and  _354
REMARK  154  A    between atoms: _359  and  _361
REMARK  155  A    between atoms: _361  and  _362
REMARK  156  A    between atoms: _361  and  _364
REMARK  157  A    between atoms: _364  and  _365
REMARK  158  A    between atoms: _365  and  _366
REMARK  159  A    between atoms: _366  and  _367
REMARK  160  A    between atoms: _367  and  _368
REMARK  161  A    between atoms: _372  and  _374
REMARK  162  A    between atoms: _374  and  _375
REMARK  163  A    between atoms: _374  and  _377
REMARK  164  A    between atoms: _379  and  _381
REMARK  165  A    between atoms: _381  and  _382
REMARK  166  A    between atoms: _381  and  _384
REMARK  167  A    between atoms: _387  and  _389
REMARK  168  A    between atoms: _389  and  _390
REMARK  169  A    between atoms: _389  and  _392
REMARK  170  A    between atoms: _392  and  _393
REMARK  171  A    between atoms: _393  and  _394
REMARK  172  A    between atoms: _397  and  _399
REMARK  173  A    between atoms: _399  and  _400
REMARK  174  A    between atoms: _402  and  _404
REMARK  175  A    between atoms: _404  and  _405
REMARK  176  A    between atoms: _404  and  _407
REMARK  177  A    between atoms: _407  and  _408
REMARK  178  A    between atoms: _408  and  _409
REMARK  179  A    between atoms: _411  and  _413
REMARK  180  A    between atoms: _413  and  _414
REMARK  181  A    between atoms: _413  and  _416
REMARK  182  A    between atoms: _419  and  _421
REMARK  183  A    between atoms: _421  and  _422
REMARK  184  A    between atoms: _421  and  _424
REMARK  185  A    between atoms: _424  and  _425
REMARK  186  A    between atoms: _425  and  _426
REMARK  187  A    between atoms: _429  and  _431
REMARK  188  A    between atoms: _431  and  _432
REMARK  189  A    between atoms: _431  and  _434
REMARK  190  A    between atoms: _434  and  _435
REMARK  191  A    between atoms: _438  and  _440
REMARK  192  A    between atoms: _440  and  _441
REMARK  193  A    between atoms: _440  and  _443
REMARK  194  A    between atoms: _443  and  _444
REMARK  195  A    between atoms: _450  and  _452
REMARK  196  A    between atoms: _452  and  _453
REMARK  197  A    between atoms: _452  and  _455
REMARK  198  A    between atoms: _455  and  _456
REMARK  199  A    between atoms: _459  and  _461
REMARK  200  A    between atoms: _461  and  _462
REMARK  201  A    between atoms: _461  and  _464
REMARK  202  A    between atoms: _464  and  _465
REMARK  203  A    between atoms: _465  and  _466
REMARK  204  A    between atoms: _468  and  _470
REMARK  205  A    between atoms: _470  and  _471
REMARK  206  A    between atoms: _470  and  _473
REMARK  207  A    between atoms: _473  and  _474
REMARK  208  A    between atoms: _477  and  _479
REMARK  209  A    between atoms: _479  and  _480
REMARK  210  A    between atoms: _479  and  _482
REMARK  211  A    between atoms: _482  and  _483
REMARK  212  A    between atoms: _486  and  _488
REMARK  213  A    between atoms: _488  and  _489
REMARK  214  A    between atoms: _488  and  _491
REMARK  215  A    between atoms: _491  and  _492
REMARK  216  A    between atoms: _492  and  _493
REMARK  217  A    between atoms: _495  and  _497
REMARK  218  A    between atoms: _497  and  _498
REMARK  219  A    between atoms: _497  and  _500
REMARK  220  A    between atoms: _500  and  _501
REMARK  221  A    between atoms: _503  and  _505
REMARK  222  A    between atoms: _505  and  _506
REMARK  223  A    between atoms: _505  and  _508
REMARK  224  A    between atoms: _508  and  _509
REMARK  225  A    between atoms: _509  and  _510
REMARK  226  A    between atoms: _510  and  _511
REMARK  227  A    between atoms: _511  and  _512
REMARK  228  A    between atoms: _516  and  _518
REMARK  229  A    between atoms: _518  and  _519
REMARK  230  A    between atoms: _521  and  _523
REMARK  231  A    between atoms: _523  and  _524
REMARK  232  A    between atoms: _523  and  _526
REMARK  233  A    between atoms: _526  and  _527
REMARK  234  A    between atoms: _527  and  _528
REMARK  235  A    between atoms: _530  and  _532
REMARK  236  A    between atoms: _532  and  _533
REMARK  237  A    between atoms: _532  and  _535
REMARK  238  A    between atoms: _535  and  _536
REMARK  239  A    between atoms: _536  and  _537
REMARK  240  A    between atoms: _540  and  _542
REMARK  241  A    between atoms: _542  and  _543
REMARK  242  A    between atoms: _542  and  _545
REMARK  243  A    between atoms: _545  and  _546
REMARK  244  A    between atoms: _551  and  _553
REMARK  245  A    between atoms: _553  and  _554
REMARK  246  A    between atoms: _553  and  _556
REMARK  247  A    between atoms: _556  and  _557
REMARK  248  A    between atoms: _560  and  _562
REMARK  249  A    between atoms: _562  and  _563
REMARK  250  A    between atoms: _562  and  _565
REMARK  251  A    between atoms: _565  and  _566
REMARK  252  A    between atoms: _571  and  _572
REMARK  253  A    between atoms: _574  and  _576
REMARK  254  A    between atoms: _576  and  _577
REMARK  255  A    between atoms: _576  and  _579
REMARK  256  A    between atoms: _579  and  _580
REMARK  257  A    between atoms: _582  and  _584
REMARK  258  A    between atoms: _584  and  _585
REMARK  259  A    between atoms: _584  and  _587
REMARK  260  A    between atoms: _587  and  _588
REMARK  261  A    between atoms: _588  and  _589
REMARK  262  A    between atoms: _591  and  _593
REMARK  263  A    between atoms: _593  and  _594
REMARK  264  A    between atoms: _593  and  _596
REMARK  265  A    between atoms: _596  and  _597
REMARK  266  A    between atoms: _597  and  _598
REMARK  267  A    between atoms: _598  and  _599
REMARK  268  A    between atoms: _599  and  _600
REMARK  269  A    between atoms: _604  and  _606
REMARK  270  A    between atoms: _606  and  _607
REMARK  271  A    between atoms: _606  and  _609
REMARK  272  A    between atoms: _612  and  _614
REMARK  273  A    between atoms: _614  and  _615
REMARK  274  A    between atoms: _614  and  _617
REMARK  275  A    between atoms: _617  and  _618
REMARK  276  A    between atoms: _621  and  _623
REMARK  277  A    between atoms: _623  and  _624
REMARK  278  A    between atoms: _623  and  _626
REMARK  279  A    between atoms: _626  and  _627
REMARK  280  A    between atoms: _630  and  _632
REMARK  281  A    between atoms: _632  and  _633
REMARK  282  A    between atoms: _632  and  _635
REMARK  283  A    between atoms: _635  and  _636
REMARK                            x       y       z     vdW  Elec       q    Type
REMARK                         _______ _______ _______ _____ _____    ______ ____
ROOT
ATOM      1  O   HOH     1     -25.313   4.813  14.288  0.00  0.00    +0.000 OA
ENDROOT
TORSDOF 0
REMARK  Name = ../refined-set-2016/2p15/2p15_pocket.pdb
REMARK  283 active torsions:
REMARK  status: ('A' for Active; 'I' for Inactive)
REMARK    1  A    between atoms: _1  and  _3
REMARK    2  A    between atoms: _3  and  _4
REMARK    3  A    between atoms: _3  and  _6
REMARK    4  A    between atoms: _6  and  _7
REMARK    5  A    between atoms: _10  and  _12
REMARK    6  A    between atoms: _12  and  _13
REMARK    7  A    between atoms: _12  and  _15
REMARK    8  A    between atoms: _15  and  _16
REMARK    9  A    between atoms: _19  and  _21
REMARK   10  A    between atoms: _21  and  _22
REMARK   11  A    between atoms: _21  and  _24
REMARK   12  A    between atoms: _24  and  _25
REMARK   13  A    between atoms: _31  and  _33
REMARK   14  A    between atoms: _33  and  _34
REMARK   15  A    between atoms: _33  and  _36
REMARK   16  A    between atoms: _36  and  _37
REMARK   17  A    between atoms: _39  and  _41
REMARK   18  A    between atoms: _41  and  _42
REMARK   19  A    between atoms: _41  and  _44
REMARK   20  A    between atoms: _44  and  _45
REMARK   21  A    between atoms: _45  and  _46
REMARK   22  A    between atoms: _49  and  _51
REMARK   23  A    between atoms: _51  and  _52
REMARK   24  A    between atoms: _51  and  _54
REMARK   25  A    between atoms: _54  and  _55
REMARK   26  A    between atoms: _55  and  _56
REMARK   27  A    between atoms: _58  and  _60
REMARK   28  A    between atoms: _60  and  _61
REMARK   29  A    between atoms: _60  and  _63
REMARK   30  A    between atoms: _63  and  _64
REMARK   31  A    between atoms: _64  and  _65
REMARK   32  A    between atoms: _67  and  _69
REMARK   33  A    between atoms: _69  and  _70
REMARK   34  A    between atoms: _69  and  _72
REMARK   35  A    between atoms: _72  and  _73
REMARK   36  A    between atoms: _76  and  _78
REMARK   37  A    between atoms: _78  and  _79
REMARK   38  A    between atoms: _78  and  _81
REMARK   39  A    between atoms: _81  and  _82
REMARK   40  A    between atoms: _85  and  _87
REMARK   41  A    between atoms: _87  and  _88
REMARK   42  A    between atoms: _87  and  _90
REMARK   43  A    between atoms: _90  and  _91
REMARK   44  A    between atoms: _94  and  _96
REMARK   45  A    between atoms: _96  and  _97
REMARK   46  A    between atoms: _96  and  _99
REMARK   47  A    between atoms: _99  and  _100
REMARK   48  A    between atoms: _105  and  _107
REMARK   49  A    between atoms: _107  and  _108
REMARK   50  A    between atoms: _107  and  _110
REMARK   51  A    between atoms: _110  and  _111
REMARK   52  A    between atoms: _114  and  _116
REMARK   53  A    between atoms: _116  and  _117
REMARK   54  A    between atoms: _120  and  _122
REMARK   55  A    between atoms: _122  and  _123
REMARK   56  A    between atoms: _122  and  _125
REMARK   57  A    between atoms: _125  and  _126
REMARK   58  A    between atoms: _129  and  _131
REMARK   59  A    between atoms: _131  and  _132
REMARK   60  A    between atoms: _131  and  _134
REMARK   61  A    between atoms: _134  and  _135
REMARK   62  A    between atoms: _135  and  _136
REMARK   63  A    between atoms: _136  and  _137
REMARK   64  A    between atoms: _146  and  _148
REMARK   65  A    between atoms: _148  and  _149
REMARK   66  A    between atoms: _148  and  _151
REMARK   67  A    between atoms: _151  and  _152
REMARK   68  A    between atoms: _152  and  _153
REMARK   69  A    between atoms: _156  and  _158
REMARK   70  A    between atoms: _158  and  _159
REMARK   71  A    between atoms: _158  and  _161
REMARK   72  A    between atoms: _161  and  _162
REMARK   73  A    between atoms: _165  and  _167
REMARK   74  A    between atoms: _167  and  _168
REMARK   75  A    between atoms: _167  and  _170
REMARK   76  A    between atoms: _170  and  _171
REMARK   77  A    between atoms: _171  and  _172
REMARK   78  A    between atoms: _174  and  _176
REMARK   79  A    between atoms: _176  and  _177
REMARK   80  A    between atoms: _176  and  _179
REMARK   81  A    between atoms: _179  and  _180
REMARK   82  A    between atoms: _190  and  _192
REMARK   83  A    between atoms: _192  and  _193
REMARK   84  A    between atoms: _192  and  _195
REMARK   85  A    between atoms: _195  and  _196
REMARK   86  A    between atoms: _199  and  _201
REMARK   87  A    between atoms: _201  and  _202
REMARK   88  A    between atoms: _201  and  _204
REMARK   89  A    between atoms: _204  and  _205
REMARK   90  A    between atoms: _205  and  _206
REMARK   91  A    between atoms: _209  and  _211
REMARK   92  A    between atoms: _211  and  _212
REMARK   93  A    between atoms: _211  and  _214
REMARK   94  A    between atoms: _214  and  _215
REMARK   95  A    between atoms: _218  and  _220
REMARK   96  A    between atoms: _220  and  _221
REMARK   97  A    between atoms: _220  and  _223
REMARK   98  A    between atoms: _223  and  _224
REMARK   99  A    between atoms: _227  and  _229
REMARK  100  A    between atoms: _229  and  _230
REMARK  101  A    between atoms: _229  and  _232
REMARK  102  A    between atoms: _232  and  _233
REMARK  103  A    between atoms: _233  and  _234
REMARK  104  A    between atoms: _236  and  _238
REMARK  105  A    between atoms: _238  and  _239
REMARK  106  A    between atoms: _238  and  _241
REMARK  107  A    between atoms: _241  and  _242
REMARK  108  A    between atoms: _245  and  _247
REMARK  109  A    between atoms: _247  and  _248
REMARK  110  A    between atoms: _250  and  _252
REMARK  111  A    between atoms: _252  and  _253
REMARK  112  A    between atoms: _252  and  _255
REMARK  113  A    between atoms: _255  and  _256
REMARK  114  A    between atoms: _259  and  _261
REMARK  115  A    between atoms: _261  and  _262
REMARK  116  A    between atoms: _261  and  _264
REMARK  117  A    between atoms: _267  and  _269
REMARK  118  A    between atoms: _269  and  _270
REMARK  119  A    between atoms: _269  and  _272
REMARK  120  A    between atoms: _272  and  _273
REMARK  121  A    between atoms: _273  and  _274
REMARK  122  A    between atoms: _274  and  _275
REMARK  123  A    between atoms: _284  and  _286
REMARK  124  A    between atoms: _286  and  _287
REMARK  125  A    between atoms: _286  and  _289
REMARK  126  A    between atoms: _289  and  _290
REMARK  127  A    between atoms: _293  and  _295
REMARK  128  A    between atoms: _295  and  _296
REMARK  129  A    between atoms: _295  and  _298
REMARK  130  A    between atoms: _298  and  _299
REMARK  131  A    between atoms: _302  and  _304
REMARK  132  A    between atoms: _304  and  _305
REMARK  133  A    between atoms: _304  and  _307
REMARK  134  A    between atoms: _307  and  _308
REMARK  135  A    between atoms: _314  and  _316
REMARK  136  A    between atoms: _316  and  _317
REMARK  137  A    between atoms: _320  and  _322
REMARK  138  A    between atoms: _322  and  _323
REMARK  139  A    between atoms: _322  and  _325
REMARK  140  A    between atoms: _325  and  _326
REMARK  141  A    between atoms: _329  and  _331
REMARK  142  A    between atoms: _331  and  _332
REMARK  143  A    between atoms: _331  and  _334
REMARK  144  A    between atoms: _334  and  _335
REMARK  145  A    between atoms: _338  and  _340
REMARK  146  A    between atoms: _340  and  _341
REMARK  147  A    between atoms: _340  and  _343
REMARK  148  A    between atoms: _343  and  _344
REMARK  149  A    between atoms: _347  and  _349
REMARK  150  A    between atoms: _349  and  _350
REMARK  151  A    between atoms: _349  and  _352
REMARK  152  A    between atoms: _352  and  _353
REMARK  153  A    between atoms: _353  and  _354
REMARK  154  A    between atoms: _359  and  _361
REMARK  155  A    between atoms: _361  and  _362
REMARK  156  A    between atoms: _361  and  _364
REMARK  157  A    between atoms: _364  and  _365
REMARK  158  A    between atoms: _365  and  _366
REMARK  159  A    between atoms: _366  and  _367
REMARK  160  A    between atoms: _367  and  _368
REMARK  161  A    between atoms: _372  and  _374
REMARK  162  A    between atoms: _374  and  _375
REMARK  163  A    between atoms: _374  and  _377
REMARK  164  A    between atoms: _379  and  _381
REMARK  165  A    between atoms: _381  and  _382
REMARK  166  A    between atoms: _381  and  _384
REMARK  167  A    between atoms: _387  and  _389
REMARK  168  A    between atoms: _389  and  _390
REMARK  169  A    between atoms: _389  and  _392
REMARK  170  A    between atoms: _392  and  _393
REMARK  171  A    between atoms: _393  and  _394
REMARK  172  A    between atoms: _397  and  _399
REMARK  173  A    between atoms: _399  and  _400
REMARK  174  A    between atoms: _402  and  _404
REMARK  175  A    between atoms: _404  and  _405
REMARK  176  A    between atoms: _404  and  _407
REMARK  177  A    between atoms: _407  and  _408
REMARK  178  A    between atoms: _408  and  _409
REMARK  179  A    between atoms: _411  and  _413
REMARK  180  A    between atoms: _413  and  _414
REMARK  181  A    between atoms: _413  and  _416
REMARK  182  A    between atoms: _419  and  _421
REMARK  183  A    between atoms: _421  and  _422
REMARK  184  A    between atoms: _421  and  _424
REMARK  185  A    between atoms: _424  and  _425
REMARK  186  A    between atoms: _425  and  _426
REMARK  187  A    between atoms: _429  and  _431
REMARK  188  A    between atoms: _431  and  _432
REMARK  189  A    between atoms: _431  and  _434
REMARK  190  A    between atoms: _434  and  _435
REMARK  191  A    between atoms: _438  and  _440
REMARK  192  A    between atoms: _440  and  _441
REMARK  193  A    between atoms: _440  and  _443
REMARK  194  A    between atoms: _443  and  _444
REMARK  195  A    between atoms: _450  and  _452
REMARK  196  A    between atoms: _452  and  _453
REMARK  197  A    between atoms: _452  and  _455
REMARK  198  A    between atoms: _455  and  _456
REMARK  199  A    between atoms: _459  and  _461
REMARK  200  A    between atoms: _461  and  _462
REMARK  201  A    between atoms: _461  and  _464
REMARK  202  A    between atoms: _464  and  _465
REMARK  203  A    between atoms: _465  and  _466
REMARK  204  A    between atoms: _468  and  _470
REMARK  205  A    between atoms: _470  and  _471
REMARK  206  A    between atoms: _470  and  _473
REMARK  207  A    between atoms: _473  and  _474
REMARK  208  A    between atoms: _477  and  _479
REMARK  209  A    between atoms: _479  and  _480
REMARK  210  A    between atoms: _479  and  _482
REMARK  211  A    between atoms: _482  and  _483
REMARK  212  A    between atoms: _486  and  _488
REMARK  213  A    between atoms: _488  and  _489
REMARK  214  A    between atoms: _488  and  _491
REMARK  215  A    between atoms: _491  and  _492
REMARK  216  A    between atoms: _492  and  _493
REMARK  217  A    between atoms: _495  and  _497
REMARK  218  A    between atoms: _497  and  _498
REMARK  219  A    between atoms: _497  and  _500
REMARK  220  A    between atoms: _500  and  _501
REMARK  221  A    between atoms: _503  and  _505
REMARK  222  A    between atoms: _505  and  _506
REMARK  223  A    between atoms: _505  and  _508
REMARK  224  A    between atoms: _508  and  _509
REMARK  225  A    between atoms: _509  and  _510
REMARK  226  A    between atoms: _510  and  _511
REMARK  227  A    between atoms: _511  and  _512
REMARK  228  A    between atoms: _516  and  _518
REMARK  229  A    between atoms: _518  and  _519
REMARK  230  A    between atoms: _521  and  _523
REMARK  231  A    between atoms: _523  and  _524
REMARK  232  A    between atoms: _523  and  _526
REMARK  233  A    between atoms: _526  and  _527
REMARK  234  A    between atoms: _527  and  _528
REMARK  235  A    between atoms: _530  and  _532
REMARK  236  A    between atoms: _532  and  _533
REMARK  237  A    between atoms: _532  and  _535
REMARK  238  A    between atoms: _535  and  _536
REMARK  239  A    between atoms: _536  and  _537
REMARK  240  A    between atoms: _540  and  _542
REMARK  241  A    between atoms: _542  and  _543
REMARK  242  A    between atoms: _542  and  _545
REMARK  243  A    between atoms: _545  and  _546
REMARK  244  A    between atoms: _551  and  _553
REMARK  245  A    between atoms: _553  and  _554
REMARK  246  A    between atoms: _553  and  _556
REMARK  247  A    between atoms: _556  and  _557
REMARK  248  A    between atoms: _560  and  _562
REMARK  249  A    between atoms: _562  and  _563
REMARK  250  A    between atoms: _562  and  _565
REMARK  251  A    between atoms: _565  and  _566
REMARK  252  A    between atoms: _571  and  _572
REMARK  253  A    between atoms: _574  and  _576
REMARK  254  A    between atoms: _576  and  _577
REMARK  255  A    between atoms: _576  and  _579
REMARK  256  A    between atoms: _579  and  _580
REMARK  257  A    between atoms: _582  and  _584
REMARK  258  A    between atoms: _584  and  _585
REMARK  259  A    between atoms: _584  and  _587
REMARK  260  A    between atoms: _587  and  _588
REMARK  261  A    between atoms: _588  and  _589
REMARK  262  A    between atoms: _591  and  _593
REMARK  263  A    between atoms: _593  and  _594
REMARK  264  A    between atoms: _593  and  _596
REMARK  265  A    between atoms: _596  and  _597
REMARK  266  A    between atoms: _597  and  _598
REMARK  267  A    between atoms: _598  and  _599
REMARK  268  A    between atoms: _599  and  _600
REMARK  269  A    between atoms: _604  and  _606
REMARK  270  A    between atoms: _606  and  _607
REMARK  271  A    between atoms: _606  and  _609
REMARK  272  A    between atoms: _612  and  _614
REMARK  273  A    between atoms: _614  and  _615
REMARK  274  A    between atoms: _614  and  _617
REMARK  275  A    between atoms: _617  and  _618
REMARK  276  A    between atoms: _621  and  _623
REMARK  277  A    between atoms: _623  and  _624
REMARK  278  A    between atoms: _623  and  _626
REMARK  279  A    between atoms: _626  and  _627
REMARK  280  A    between atoms: _630  and  _632
REMARK  281  A    between atoms: _632  and  _633
REMARK  282  A    between atoms: _632  and  _635
REMARK  283  A    between atoms: _635  and  _636
REMARK                            x       y       z     vdW  Elec       q    Type
REMARK                         _______ _______ _______ _____ _____    ______ ____
ROOT
ATOM      1  O   HOH     1     -24.487   2.482  14.972  0.00  0.00    +0.000 OA
ENDROOT
TORSDOF 0
REMARK  Name = ../refined-set-2016/2p15/2p15_pocket.pdb
REMARK  283 active torsions:
REMARK  status: ('A' for Active; 'I' for Inactive)
REMARK    1  A    between atoms: _1  and  _3
REMARK    2  A    between atoms: _3  and  _4
REMARK    3  A    between atoms: _3  and  _6
REMARK    4  A    between atoms: _6  and  _7
REMARK    5  A    between atoms: _10  and  _12
REMARK    6  A    between atoms: _12  and  _13
REMARK    7  A    between atoms: _12  and  _15
REMARK    8  A    between atoms: _15  and  _16
REMARK    9  A    between atoms: _19  and  _21
REMARK   10  A    between atoms: _21  and  _22
REMARK   11  A    between atoms: _21  and  _24
REMARK   12  A    between atoms: _24  and  _25
REMARK   13  A    between atoms: _31  and  _33
REMARK   14  A    between atoms: _33  and  _34
REMARK   15  A    between atoms: _33  and  _36
REMARK   16  A    between atoms: _36  and  _37
REMARK   17  A    between atoms: _39  and  _41
REMARK   18  A    between atoms: _41  and  _42
REMARK   19  A    between atoms: _41  and  _44
REMARK   20  A    between atoms: _44  and  _45
REMARK   21  A    between atoms: _45  and  _46
REMARK   22  A    between atoms: _49  and  _51
REMARK   23  A    between atoms: _51  and  _52
REMARK   24  A    between atoms: _51  and  _54
REMARK   25  A    between atoms: _54  and  _55
REMARK   26  A    between atoms: _55  and  _56
REMARK   27  A    between atoms: _58  and  _60
REMARK   28  A    between atoms: _60  and  _61
REMARK   29  A    between atoms: _60  and  _63
REMARK   30  A    between atoms: _63  and  _64
REMARK   31  A    between atoms: _64  and  _65
REMARK   32  A    between atoms: _67  and  _69
REMARK   33  A    between atoms: _69  and  _70
REMARK   34  A    between atoms: _69  and  _72
REMARK   35  A    between atoms: _72  and  _73
REMARK   36  A    between atoms: _76  and  _78
REMARK   37  A    between atoms: _78  and  _79
REMARK   38  A    between atoms: _78  and  _81
REMARK   39  A    between atoms: _81  and  _82
REMARK   40  A    between atoms: _85  and  _87
REMARK   41  A    between atoms: _87  and  _88
REMARK   42  A    between atoms: _87  and  _90
REMARK   43  A    between atoms: _90  and  _91
REMARK   44  A    between atoms: _94  and  _96
REMARK   45  A    between atoms: _96  and  _97
REMARK   46  A    between atoms: _96  and  _99
REMARK   47  A    between atoms: _99  and  _100
REMARK   48  A    between atoms: _105  and  _107
REMARK   49  A    between atoms: _107  and  _108
REMARK   50  A    between atoms: _107  and  _110
REMARK   51  A    between atoms: _110  and  _111
REMARK   52  A    between atoms: _114  and  _116
REMARK   53  A    between atoms: _116  and  _117
REMARK   54  A    between atoms: _120  and  _122
REMARK   55  A    between atoms: _122  and  _123
REMARK   56  A    between atoms: _122  and  _125
REMARK   57  A    between atoms: _125  and  _126
REMARK   58  A    between atoms: _129  and  _131
REMARK   59  A    between atoms: _131  and  _132
REMARK   60  A    between atoms: _131  and  _134
REMARK   61  A    between atoms: _134  and  _135
REMARK   62  A    between atoms: _135  and  _136
REMARK   63  A    between atoms: _136  and  _137
REMARK   64  A    between atoms: _146  and  _148
REMARK   65  A    between atoms: _148  and  _149
REMARK   66  A    between atoms: _148  and  _151
REMARK   67  A    between atoms: _151  and  _152
REMARK   68  A    between atoms: _152  and  _153
REMARK   69  A    between atoms: _156  and  _158
REMARK   70  A    between atoms: _158  and  _159
REMARK   71  A    between atoms: _158  and  _161
REMARK   72  A    between atoms: _161  and  _162
REMARK   73  A    between atoms: _165  and  _167
REMARK   74  A    between atoms: _167  and  _168
REMARK   75  A    between atoms: _167  and  _170
REMARK   76  A    between atoms: _170  and  _171
REMARK   77  A    between atoms: _171  and  _172
REMARK   78  A    between atoms: _174  and  _176
REMARK   79  A    between atoms: _176  and  _177
REMARK   80  A    between atoms: _176  and  _179
REMARK   81  A    between atoms: _179  and  _180
REMARK   82  A    between atoms: _190  and  _192
REMARK   83  A    between atoms: _192  and  _193
REMARK   84  A    between atoms: _192  and  _195
REMARK   85  A    between atoms: _195  and  _196
REMARK   86  A    between atoms: _199  and  _201
REMARK   87  A    between atoms: _201  and  _202
REMARK   88  A    between atoms: _201  and  _204
REMARK   89  A    between atoms: _204  and  _205
REMARK   90  A    between atoms: _205  and  _206
REMARK   91  A    between atoms: _209  and  _211
REMARK   92  A    between atoms: _211  and  _212
REMARK   93  A    between atoms: _211  and  _214
REMARK   94  A    between atoms: _214  and  _215
REMARK   95  A    between atoms: _218  and  _220
REMARK   96  A    between atoms: _220  and  _221
REMARK   97  A    between atoms: _220  and  _223
REMARK   98  A    between atoms: _223  and  _224
REMARK   99  A    between atoms: _227  and  _229
REMARK  100  A    between atoms: _229  and  _230
REMARK  101  A    between atoms: _229  and  _232
REMARK  102  A    between atoms: _232  and  _233
REMARK  103  A    between atoms: _233  and  _234
REMARK  104  A    between atoms: _236  and  _238
REMARK  105  A    between atoms: _238  and  _239
REMARK  106  A    between atoms: _238  and  _241
REMARK  107  A    between atoms: _241  and  _242
REMARK  108  A    between atoms: _245  and  _247
REMARK  109  A    between atoms: _247  and  _248
REMARK  110  A    between atoms: _250  and  _252
REMARK  111  A    between atoms: _252  and  _253
REMARK  112  A    between atoms: _252  and  _255
REMARK  113  A    between atoms: _255  and  _256
REMARK  114  A    between atoms: _259  and  _261
REMARK  115  A    between atoms: _261  and  _262
REMARK  116  A    between atoms: _261  and  _264
REMARK  117  A    between atoms: _267  and  _269
REMARK  118  A    between atoms: _269  and  _270
REMARK  119  A    between atoms: _269  and  _272
REMARK  120  A    between atoms: _272  and  _273
REMARK  121  A    between atoms: _273  and  _274
REMARK  122  A    between atoms: _274  and  _275
REMARK  123  A    between atoms: _284  and  _286
REMARK  124  A    between atoms: _286  and  _287
REMARK  125  A    between atoms: _286  and  _289
REMARK  126  A    between atoms: _289  and  _290
REMARK  127  A    between atoms: _293  and  _295
REMARK  128  A    between atoms: _295  and  _296
REMARK  129  A    between atoms: _295  and  _298
REMARK  130  A    between atoms: _298  and  _299
REMARK  131  A    between atoms: _302  and  _304
REMARK  132  A    between atoms: _304  and  _305
REMARK  133  A    between atoms: _304  and  _307
REMARK  134  A    between atoms: _307  and  _308
REMARK  135  A    between atoms: _314  and  _316
REMARK  136  A    between atoms: _316  and  _317
REMARK  137  A    between atoms: _320  and  _322
REMARK  138  A    between atoms: _322  and  _323
REMARK  139  A    between atoms: _322  and  _325
REMARK  140  A    between atoms: _325  and  _326
REMARK  141  A    between atoms: _329  and  _331
REMARK  142  A    between atoms: _331  and  _332
REMARK  143  A    between atoms: _331  and  _334
REMARK  144  A    between atoms: _334  and  _335
REMARK  145  A    between atoms: _338  and  _340
REMARK  146  A    between atoms: _340  and  _341
REMARK  147  A    between atoms: _340  and  _343
REMARK  148  A    between atoms: _343  and  _344
REMARK  149  A    between atoms: _347  and  _349
REMARK  150  A    between atoms: _349  and  _350
REMARK  151  A    between atoms: _349  and  _352
REMARK  152  A    between atoms: _352  and  _353
REMARK  153  A    between atoms: _353  and  _354
REMARK  154  A    between atoms: _359  and  _361
REMARK  155  A    between atoms: _361  and  _362
REMARK  156  A    between atoms: _361  and  _364
REMARK  157  A    between atoms: _364  and  _365
REMARK  158  A    between atoms: _365  and  _366
REMARK  159  A    between atoms: _366  and  _367
REMARK  160  A    between atoms: _367  and  _368
REMARK  161  A    between atoms: _372  and  _374
REMARK  162  A    between atoms: _374  and  _375
REMARK  163  A    between atoms: _374  and  _377
REMARK  164  A    between atoms: _379  and  _381
REMARK  165  A    between atoms: _381  and  _382
REMARK  166  A    between atoms: _381  and  _384
REMARK  167  A    between atoms: _387  and  _389
REMARK  168  A    between atoms: _389  and  _390
REMARK  169  A    between atoms: _389  and  _392
REMARK  170  A    between atoms: _392  and  _393
REMARK  171  A    between atoms: _393  and  _394
REMARK  172  A    between atoms: _397  and  _399
REMARK  173  A    between atoms: _399  and  _400
REMARK  174  A    between atoms: _402  and  _404
REMARK  175  A    between atoms: _404  and  _405
REMARK  176  A    between atoms: _404  and  _407
REMARK  177  A    between atoms: _407  and  _408
REMARK  178  A    between atoms: _408  and  _409
REMARK  179  A    between atoms: _411  and  _413
REMARK  180  A    between atoms: _413  and  _414
REMARK  181  A    between atoms: _413  and  _416
REMARK  182  A    between atoms: _419  and  _421
REMARK  183  A    between atoms: _421  and  _422
REMARK  184  A    between atoms: _421  and  _424
REMARK  185  A    between atoms: _424  and  _425
REMARK  186  A    between atoms: _425  and  _426
REMARK  187  A    between atoms: _429  and  _431
REMARK  188  A    between atoms: _431  and  _432
REMARK  189  A    between atoms: _431  and  _434
REMARK  190  A    between atoms: _434  and  _435
REMARK  191  A    between atoms: _438  and  _440
REMARK  192  A    between atoms: _440  and  _441
REMARK  193  A    between atoms: _440  and  _443
REMARK  194  A    between atoms: _443  and  _444
REMARK  195  A    between atoms: _450  and  _452
REMARK  196  A    between atoms: _452  and  _453
REMARK  197  A    between atoms: _452  and  _455
REMARK  198  A    between atoms: _455  and  _456
REMARK  199  A    between atoms: _459  and  _461
REMARK  200  A    between atoms: _461  and  _462
REMARK  201  A    between atoms: _461  and  _464
REMARK  202  A    between atoms: _464  and  _465
REMARK  203  A    between atoms: _465  and  _466
REMARK  204  A    between atoms: _468  and  _470
REMARK  205  A    between atoms: _470  and  _471
REMARK  206  A    between atoms: _470  and  _473
REMARK  207  A    between atoms: _473  and  _474
REMARK  208  A    between atoms: _477  and  _479
REMARK  209  A    between atoms: _479  and  _480
REMARK  210  A    between atoms: _479  and  _482
REMARK  211  A    between atoms: _482  and  _483
REMARK  212  A    between atoms: _486  and  _488
REMARK  213  A    between atoms: _488  and  _489
REMARK  214  A    between atoms: _488  and  _491
REMARK  215  A    between atoms: _491  and  _492
REMARK  216  A    between atoms: _492  and  _493
REMARK  217  A    between atoms: _495  and  _497
REMARK  218  A    between atoms: _497  and  _498
REMARK  219  A    between atoms: _497  and  _500
REMARK  220  A    between atoms: _500  and  _501
REMARK  221  A    between atoms: _503  and  _505
REMARK  222  A    between atoms: _505  and  _506
REMARK  223  A    between atoms: _505  and  _508
REMARK  224  A    between atoms: _508  and  _509
REMARK  225  A    between atoms: _509  and  _510
REMARK  226  A    between atoms: _510  and  _511
REMARK  227  A    between atoms: _511  and  _512
REMARK  228  A    between atoms: _516  and  _518
REMARK  229  A    between atoms: _518  and  _519
REMARK  230  A    between atoms: _521  and  _523
REMARK  231  A    between atoms: _523  and  _524
REMARK  232  A    between atoms: _523  and  _526
REMARK  233  A    between atoms: _526  and  _527
REMARK  234  A    between atoms: _527  and  _528
REMARK  235  A    between atoms: _530  and  _532
REMARK  236  A    between atoms: _532  and  _533
REMARK  237  A    between atoms: _532  and  _535
REMARK  238  A    between atoms: _535  and  _536
REMARK  239  A    between atoms: _536  and  _537
REMARK  240  A    between atoms: _540  and  _542
REMARK  241  A    between atoms: _542  and  _543
REMARK  242  A    between atoms: _542  and  _545
REMARK  243  A    between atoms: _545  and  _546
REMARK  244  A    between atoms: _551  and  _553
REMARK  245  A    between atoms: _553  and  _554
REMARK  246  A    between atoms: _553  and  _556
REMARK  247  A    between atoms: _556  and  _557
REMARK  248  A    between atoms: _560  and  _562
REMARK  249  A    between atoms: _562  and  _563
REMARK  250  A    between atoms: _562  and  _565
REMARK  251  A    between atoms: _565  and  _566
REMARK  252  A    between atoms: _571  and  _572
REMARK  253  A    between atoms: _574  and  _576
REMARK  254  A    between atoms: _576  and  _577
REMARK  255  A    between atoms: _576  and  _579
REMARK  256  A    between atoms: _579  and  _580
REMARK  257  A    between atoms: _582  and  _584
REMARK  258  A    between atoms: _584  and  _585
REMARK  259  A    between atoms: _584  and  _587
REMARK  260  A    between atoms: _587  and  _588
REMARK  261  A    between atoms: _588  and  _589
REMARK  262  A    between atoms: _591  and  _593
REMARK  263  A    between atoms: _593  and  _594
REMARK  264  A    between atoms: _593  and  _596
REMARK  265  A    between atoms: _596  and  _597
REMARK  266  A    between atoms: _597  and  _598
REMARK  267  A    between atoms: _598  and  _599
REMARK  268  A    between atoms: _599  and  _600
REMARK  269  A    between atoms: _604  and  _606
REMARK  270  A    between atoms: _606  and  _607
REMARK  271  A    between atoms: _606  and  _609
REMARK  272  A    between atoms: _612  and  _614
REMARK  273  A    between atoms: _614  and  _615
REMARK  274  A    between atoms: _614  and  _617
REMARK  275  A    between atoms: _617  and  _618
REMARK  276  A    between atoms: _621  and  _623
REMARK  277  A    between atoms: _623  and  _624
REMARK  278  A    between atoms: _623  and  _626
REMARK  279  A    between atoms: _626  and  _627
REMARK  280  A    between atoms: _630  and  _632
REMARK  281  A    between atoms: _632  and  _633
REMARK  282  A    between atoms: _632  and  _635
REMARK  283  A    between atoms: _635  and  _636
REMARK                            x       y       z     vdW  Elec       q    Type
REMARK                         _______ _______ _______ _____ _____    ______ ____
ROOT
ATOM      1  O   HOH     1     -21.794   0.942  20.860  0.00  0.00    +0.000 OA
ENDROOT
TORSDOF 0
REMARK  Name = ../refined-set-2016/2p15/2p15_pocket.pdb
REMARK  283 active torsions:
REMARK  status: ('A' for Active; 'I' for Inactive)
REMARK    1  A    between atoms: _1  and  _3
REMARK    2  A    between atoms: _3  and  _4
REMARK    3  A    between atoms: _3  and  _6
REMARK    4  A    between atoms: _6  and  _7
REMARK    5  A    between atoms: _10  and  _12
REMARK    6  A    between atoms: _12  and  _13
REMARK    7  A    between atoms: _12  and  _15
REMARK    8  A    between atoms: _15  and  _16
REMARK    9  A    between atoms: _19  and  _21
REMARK   10  A    between atoms: _21  and  _22
REMARK   11  A    between atoms: _21  and  _24
REMARK   12  A    between atoms: _24  and  _25
REMARK   13  A    between atoms: _31  and  _33
REMARK   14  A    between atoms: _33  and  _34
REMARK   15  A    between atoms: _33  and  _36
REMARK   16  A    between atoms: _36  and  _37
REMARK   17  A    between atoms: _39  and  _41
REMARK   18  A    between atoms: _41  and  _42
REMARK   19  A    between atoms: _41  and  _44
REMARK   20  A    between atoms: _44  and  _45
REMARK   21  A    between atoms: _45  and  _46
REMARK   22  A    between atoms: _49  and  _51
REMARK   23  A    between atoms: _51  and  _52
REMARK   24  A    between atoms: _51  and  _54
REMARK   25  A    between atoms: _54  and  _55
REMARK   26  A    between atoms: _55  and  _56
REMARK   27  A    between atoms: _58  and  _60
REMARK   28  A    between atoms: _60  and  _61
REMARK   29  A    between atoms: _60  and  _63
REMARK   30  A    between atoms: _63  and  _64
REMARK   31  A    between atoms: _64  and  _65
REMARK   32  A    between atoms: _67  and  _69
REMARK   33  A    between atoms: _69  and  _70
REMARK   34  A    between atoms: _69  and  _72
REMARK   35  A    between atoms: _72  and  _73
REMARK   36  A    between atoms: _76  and  _78
REMARK   37  A    between atoms: _78  and  _79
REMARK   38  A    between atoms: _78  and  _81
REMARK   39  A    between atoms: _81  and  _82
REMARK   40  A    between atoms: _85  and  _87
REMARK   41  A    between atoms: _87  and  _88
REMARK   42  A    between atoms: _87  and  _90
REMARK   43  A    between atoms: _90  and  _91
REMARK   44  A    between atoms: _94  and  _96
REMARK   45  A    between atoms: _96  and  _97
REMARK   46  A    between atoms: _96  and  _99
REMARK   47  A    between atoms: _99  and  _100
REMARK   48  A    between atoms: _105  and  _107
REMARK   49  A    between atoms: _107  and  _108
REMARK   50  A    between atoms: _107  and  _110
REMARK   51  A    between atoms: _110  and  _111
REMARK   52  A    between atoms: _114  and  _116
REMARK   53  A    between atoms: _116  and  _117
REMARK   54  A    between atoms: _120  and  _122
REMARK   55  A    between atoms: _122  and  _123
REMARK   56  A    between atoms: _122  and  _125
REMARK   57  A    between atoms: _125  and  _126
REMARK   58  A    between atoms: _129  and  _131
REMARK   59  A    between atoms: _131  and  _132
REMARK   60  A    between atoms: _131  and  _134
REMARK   61  A    between atoms: _134  and  _135
REMARK   62  A    between atoms: _135  and  _136
REMARK   63  A    between atoms: _136  and  _137
REMARK   64  A    between atoms: _146  and  _148
REMARK   65  A    between atoms: _148  and  _149
REMARK   66  A    between atoms: _148  and  _151
REMARK   67  A    between atoms: _151  and  _152
REMARK   68  A    between atoms: _152  and  _153
REMARK   69  A    between atoms: _156  and  _158
REMARK   70  A    between atoms: _158  and  _159
REMARK   71  A    between atoms: _158  and  _161
REMARK   72  A    between atoms: _161  and  _162
REMARK   73  A    between atoms: _165  and  _167
REMARK   74  A    between atoms: _167  and  _168
REMARK   75  A    between atoms: _167  and  _170
REMARK   76  A    between atoms: _170  and  _171
REMARK   77  A    between atoms: _171  and  _172
REMARK   78  A    between atoms: _174  and  _176
REMARK   79  A    between atoms: _176  and  _177
REMARK   80  A    between atoms: _176  and  _179
REMARK   81  A    between atoms: _179  and  _180
REMARK   82  A    between atoms: _190  and  _192
REMARK   83  A    between atoms: _192  and  _193
REMARK   84  A    between atoms: _192  and  _195
REMARK   85  A    between atoms: _195  and  _196
REMARK   86  A    between atoms: _199  and  _201
REMARK   87  A    between atoms: _201  and  _202
REMARK   88  A    between atoms: _201  and  _204
REMARK   89  A    between atoms: _204  and  _205
REMARK   90  A    between atoms: _205  and  _206
REMARK   91  A    between atoms: _209  and  _211
REMARK   92  A    between atoms: _211  and  _212
REMARK   93  A    between atoms: _211  and  _214
REMARK   94  A    between atoms: _214  and  _215
REMARK   95  A    between atoms: _218  and  _220
REMARK   96  A    between atoms: _220  and  _221
REMARK   97  A    between atoms: _220  and  _223
REMARK   98  A    between atoms: _223  and  _224
REMARK   99  A    between atoms: _227  and  _229
REMARK  100  A    between atoms: _229  and  _230
REMARK  101  A    between atoms: _229  and  _232
REMARK  102  A    between atoms: _232  and  _233
REMARK  103  A    between atoms: _233  and  _234
REMARK  104  A    between atoms: _236  and  _238
REMARK  105  A    between atoms: _238  and  _239
REMARK  106  A    between atoms: _238  and  _241
REMARK  107  A    between atoms: _241  and  _242
REMARK  108  A    between atoms: _245  and  _247
REMARK  109  A    between atoms: _247  and  _248
REMARK  110  A    between atoms: _250  and  _252
REMARK  111  A    between atoms: _252  and  _253
REMARK  112  A    between atoms: _252  and  _255
REMARK  113  A    between atoms: _255  and  _256
REMARK  114  A    between atoms: _259  and  _261
REMARK  115  A    between atoms: _261  and  _262
REMARK  116  A    between atoms: _261  and  _264
REMARK  117  A    between atoms: _267  and  _269
REMARK  118  A    between atoms: _269  and  _270
REMARK  119  A    between atoms: _269  and  _272
REMARK  120  A    between atoms: _272  and  _273
REMARK  121  A    between atoms: _273  and  _274
REMARK  122  A    between atoms: _274  and  _275
REMARK  123  A    between atoms: _284  and  _286
REMARK  124  A    between atoms: _286  and  _287
REMARK  125  A    between atoms: _286  and  _289
REMARK  126  A    between atoms: _289  and  _290
REMARK  127  A    between atoms: _293  and  _295
REMARK  128  A    between atoms: _295  and  _296
REMARK  129  A    between atoms: _295  and  _298
REMARK  130  A    between atoms: _298  and  _299
REMARK  131  A    between atoms: _302  and  _304
REMARK  132  A    between atoms: _304  and  _305
REMARK  133  A    between atoms: _304  and  _307
REMARK  134  A    between atoms: _307  and  _308
REMARK  135  A    between atoms: _314  and  _316
REMARK  136  A    between atoms: _316  and  _317
REMARK  137  A    between atoms: _320  and  _322
REMARK  138  A    between atoms: _322  and  _323
REMARK  139  A    between atoms: _322  and  _325
REMARK  140  A    between atoms: _325  and  _326
REMARK  141  A    between atoms: _329  and  _331
REMARK  142  A    between atoms: _331  and  _332
REMARK  143  A    between atoms: _331  and  _334
REMARK  144  A    between atoms: _334  and  _335
REMARK  145  A    between atoms: _338  and  _340
REMARK  146  A    between atoms: _340  and  _341
REMARK  147  A    between atoms: _340  and  _343
REMARK  148  A    between atoms: _343  and  _344
REMARK  149  A    between atoms: _347  and  _349
REMARK  150  A    between atoms: _349  and  _350
REMARK  151  A    between atoms: _349  and  _352
REMARK  152  A    between atoms: _352  and  _353
REMARK  153  A    between atoms: _353  and  _354
REMARK  154  A    between atoms: _359  and  _361
REMARK  155  A    between atoms: _361  and  _362
REMARK  156  A    between atoms: _361  and  _364
REMARK  157  A    between atoms: _364  and  _365
REMARK  158  A    between atoms: _365  and  _366
REMARK  159  A    between atoms: _366  and  _367
REMARK  160  A    between atoms: _367  and  _368
REMARK  161  A    between atoms: _372  and  _374
REMARK  162  A    between atoms: _374  and  _375
REMARK  163  A    between atoms: _374  and  _377
REMARK  164  A    between atoms: _379  and  _381
REMARK  165  A    between atoms: _381  and  _382
REMARK  166  A    between atoms: _381  and  _384
REMARK  167  A    between atoms: _387  and  _389
REMARK  168  A    between atoms: _389  and  _390
REMARK  169  A    between atoms: _389  and  _392
REMARK  170  A    between atoms: _392  and  _393
REMARK  171  A    between atoms: _393  and  _394
REMARK  172  A    between atoms: _397  and  _399
REMARK  173  A    between atoms: _399  and  _400
REMARK  174  A    between atoms: _402  and  _404
REMARK  175  A    between atoms: _404  and  _405
REMARK  176  A    between atoms: _404  and  _407
REMARK  177  A    between atoms: _407  and  _408
REMARK  178  A    between atoms: _408  and  _409
REMARK  179  A    between atoms: _411  and  _413
REMARK  180  A    between atoms: _413  and  _414
REMARK  181  A    between atoms: _413  and  _416
REMARK  182  A    between atoms: _419  and  _421
REMARK  183  A    between atoms: _421  and  _422
REMARK  184  A    between atoms: _421  and  _424
REMARK  185  A    between atoms: _424  and  _425
REMARK  186  A    between atoms: _425  and  _426
REMARK  187  A    between atoms: _429  and  _431
REMARK  188  A    between atoms: _431  and  _432
REMARK  189  A    between atoms: _431  and  _434
REMARK  190  A    between atoms: _434  and  _435
REMARK  191  A    between atoms: _438  and  _440
REMARK  192  A    between atoms: _440  and  _441
REMARK  193  A    between atoms: _440  and  _443
REMARK  194  A    between atoms: _443  and  _444
REMARK  195  A    between atoms: _450  and  _452
REMARK  196  A    between atoms: _452  and  _453
REMARK  197  A    between atoms: _452  and  _455
REMARK  198  A    between atoms: _455  and  _456
REMARK  199  A    between atoms: _459  and  _461
REMARK  200  A    between atoms: _461  and  _462
REMARK  201  A    between atoms: _461  and  _464
REMARK  202  A    between atoms: _464  and  _465
REMARK  203  A    between atoms: _465  and  _466
REMARK  204  A    between atoms: _468  and  _470
REMARK  205  A    between atoms: _470  and  _471
REMARK  206  A    between atoms: _470  and  _473
REMARK  207  A    between atoms: _473  and  _474
REMARK  208  A    between atoms: _477  and  _479
REMARK  209  A    between atoms: _479  and  _480
REMARK  210  A    between atoms: _479  and  _482
REMARK  211  A    between atoms: _482  and  _483
REMARK  212  A    between atoms: _486  and  _488
REMARK  213  A    between atoms: _488  and  _489
REMARK  214  A    between atoms: _488  and  _491
REMARK  215  A    between atoms: _491  and  _492
REMARK  216  A    between atoms: _492  and  _493
REMARK  217  A    between atoms: _495  and  _497
REMARK  218  A    between atoms: _497  and  _498
REMARK  219  A    between atoms: _497  and  _500
REMARK  220  A    between atoms: _500  and  _501
REMARK  221  A    between atoms: _503  and  _505
REMARK  222  A    between atoms: _505  and  _506
REMARK  223  A    between atoms: _505  and  _508
REMARK  224  A    between atoms: _508  and  _509
REMARK  225  A    between atoms: _509  and  _510
REMARK  226  A    between atoms: _510  and  _511
REMARK  227  A    between atoms: _511  and  _512
REMARK  228  A    between atoms: _516  and  _518
REMARK  229  A    between atoms: _518  and  _519
REMARK  230  A    between atoms: _521  and  _523
REMARK  231  A    between atoms: _523  and  _524
REMARK  232  A    between atoms: _523  and  _526
REMARK  233  A    between atoms: _526  and  _527
REMARK  234  A    between atoms: _527  and  _528
REMARK  235  A    between atoms: _530  and  _532
REMARK  236  A    between atoms: _532  and  _533
REMARK  237  A    between atoms: _532  and  _535
REMARK  238  A    between atoms: _535  and  _536
REMARK  239  A    between atoms: _536  and  _537
REMARK  240  A    between atoms: _540  and  _542
REMARK  241  A    between atoms: _542  and  _543
REMARK  242  A    between atoms: _542  and  _545
REMARK  243  A    between atoms: _545  and  _546
REMARK  244  A    between atoms: _551  and  _553
REMARK  245  A    between atoms: _553  and  _554
REMARK  246  A    between atoms: _553  and  _556
REMARK  247  A    between atoms: _556  and  _557
REMARK  248  A    between atoms: _560  and  _562
REMARK  249  A    between atoms: _562  and  _563
REMARK  250  A    between atoms: _562  and  _565
REMARK  251  A    between atoms: _565  and  _566
REMARK  252  A    between atoms: _571  and  _572
REMARK  253  A    between atoms: _574  and  _576
REMARK  254  A    between atoms: _576  and  _577
REMARK  255  A    between atoms: _576  and  _579
REMARK  256  A    between atoms: _579  and  _580
REMARK  257  A    between atoms: _582  and  _584
REMARK  258  A    between atoms: _584  and  _585
REMARK  259  A    between atoms: _584  and  _587
REMARK  260  A    between atoms: _587  and  _588
REMARK  261  A    between atoms: _588  and  _589
REMARK  262  A    between atoms: _591  and  _593
REMARK  263  A    between atoms: _593  and  _594
REMARK  264  A    between atoms: _593  and  _596
REMARK  265  A    between atoms: _596  and  _597
REMARK  266  A    between atoms: _597  and  _598
REMARK  267  A    between atoms: _598  and  _599
REMARK  268  A    between atoms: _599  and  _600
REMARK  269  A    between atoms: _604  and  _606
REMARK  270  A    between atoms: _606  and  _607
REMARK  271  A    between atoms: _606  and  _609
REMARK  272  A    between atoms: _612  and  _614
REMARK  273  A    between atoms: _614  and  _615
REMARK  274  A    between atoms: _614  and  _617
REMARK  275  A    between atoms: _617  and  _618
REMARK  276  A    between atoms: _621  and  _623
REMARK  277  A    between atoms: _623  and  _624
REMARK  278  A    between atoms: _623  and  _626
REMARK  279  A    between atoms: _626  and  _627
REMARK  280  A    between atoms: _630  and  _632
REMARK  281  A    between atoms: _632  and  _633
REMARK  282  A    between atoms: _632  and  _635
REMARK  283  A    between atoms: _635  and  _636
REMARK                            x       y       z     vdW  Elec       q    Type
REMARK                         _______ _______ _______ _____ _____    ______ ____
ROOT
ATOM      1  O   HOH     1     -41.846   4.101  29.230  0.00  0.00    +0.000 OA
ENDROOT
TORSDOF 0
REMARK  Name = ../refined-set-2016/2p15/2p15_pocket.pdb
REMARK  283 active torsions:
REMARK  status: ('A' for Active; 'I' for Inactive)
REMARK    1  A    between atoms: _1  and  _3
REMARK    2  A    between atoms: _3  and  _4
REMARK    3  A    between atoms: _3  and  _6
REMARK    4  A    between atoms: _6  and  _7
REMARK    5  A    between atoms: _10  and  _12
REMARK    6  A    between atoms: _12  and  _13
REMARK    7  A    between atoms: _12  and  _15
REMARK    8  A    between atoms: _15  and  _16
REMARK    9  A    between atoms: _19  and  _21
REMARK   10  A    between atoms: _21  and  _22
REMARK   11  A    between atoms: _21  and  _24
REMARK   12  A    between atoms: _24  and  _25
REMARK   13  A    between atoms: _31  and  _33
REMARK   14  A    between atoms: _33  and  _34
REMARK   15  A    between atoms: _33  and  _36
REMARK   16  A    between atoms: _36  and  _37
REMARK   17  A    between atoms: _39  and  _41
REMARK   18  A    between atoms: _41  and  _42
REMARK   19  A    between atoms: _41  and  _44
REMARK   20  A    between atoms: _44  and  _45
REMARK   21  A    between atoms: _45  and  _46
REMARK   22  A    between atoms: _49  and  _51
REMARK   23  A    between atoms: _51  and  _52
REMARK   24  A    between atoms: _51  and  _54
REMARK   25  A    between atoms: _54  and  _55
REMARK   26  A    between atoms: _55  and  _56
REMARK   27  A    between atoms: _58  and  _60
REMARK   28  A    between atoms: _60  and  _61
REMARK   29  A    between atoms: _60  and  _63
REMARK   30  A    between atoms: _63  and  _64
REMARK   31  A    between atoms: _64  and  _65
REMARK   32  A    between atoms: _67  and  _69
REMARK   33  A    between atoms: _69  and  _70
REMARK   34  A    between atoms: _69  and  _72
REMARK   35  A    between atoms: _72  and  _73
REMARK   36  A    between atoms: _76  and  _78
REMARK   37  A    between atoms: _78  and  _79
REMARK   38  A    between atoms: _78  and  _81
REMARK   39  A    between atoms: _81  and  _82
REMARK   40  A    between atoms: _85  and  _87
REMARK   41  A    between atoms: _87  and  _88
REMARK   42  A    between atoms: _87  and  _90
REMARK   43  A    between atoms: _90  and  _91
REMARK   44  A    between atoms: _94  and  _96
REMARK   45  A    between atoms: _96  and  _97
REMARK   46  A    between atoms: _96  and  _99
REMARK   47  A    between atoms: _99  and  _100
REMARK   48  A    between atoms: _105  and  _107
REMARK   49  A    between atoms: _107  and  _108
REMARK   50  A    between atoms: _107  and  _110
REMARK   51  A    between atoms: _110  and  _111
REMARK   52  A    between atoms: _114  and  _116
REMARK   53  A    between atoms: _116  and  _117
REMARK   54  A    between atoms: _120  and  _122
REMARK   55  A    between atoms: _122  and  _123
REMARK   56  A    between atoms: _122  and  _125
REMARK   57  A    between atoms: _125  and  _126
REMARK   58  A    between atoms: _129  and  _131
REMARK   59  A    between atoms: _131  and  _132
REMARK   60  A    between atoms: _131  and  _134
REMARK   61  A    between atoms: _134  and  _135
REMARK   62  A    between atoms: _135  and  _136
REMARK   63  A    between atoms: _136  and  _137
REMARK   64  A    between atoms: _146  and  _148
REMARK   65  A    between atoms: _148  and  _149
REMARK   66  A    between atoms: _148  and  _151
REMARK   67  A    between atoms: _151  and  _152
REMARK   68  A    between atoms: _152  and  _153
REMARK   69  A    between atoms: _156  and  _158
REMARK   70  A    between atoms: _158  and  _159
REMARK   71  A    between atoms: _158  and  _161
REMARK   72  A    between atoms: _161  and  _162
REMARK   73  A    between atoms: _165  and  _167
REMARK   74  A    between atoms: _167  and  _168
REMARK   75  A    between atoms: _167  and  _170
REMARK   76  A    between atoms: _170  and  _171
REMARK   77  A    between atoms: _171  and  _172
REMARK   78  A    between atoms: _174  and  _176
REMARK   79  A    between atoms: _176  and  _177
REMARK   80  A    between atoms: _176  and  _179
REMARK   81  A    between atoms: _179  and  _180
REMARK   82  A    between atoms: _190  and  _192
REMARK   83  A    between atoms: _192  and  _193
REMARK   84  A    between atoms: _192  and  _195
REMARK   85  A    between atoms: _195  and  _196
REMARK   86  A    between atoms: _199  and  _201
REMARK   87  A    between atoms: _201  and  _202
REMARK   88  A    between atoms: _201  and  _204
REMARK   89  A    between atoms: _204  and  _205
REMARK   90  A    between atoms: _205  and  _206
REMARK   91  A    between atoms: _209  and  _211
REMARK   92  A    between atoms: _211  and  _212
REMARK   93  A    between atoms: _211  and  _214
REMARK   94  A    between atoms: _214  and  _215
REMARK   95  A    between atoms: _218  and  _220
REMARK   96  A    between atoms: _220  and  _221
REMARK   97  A    between atoms: _220  and  _223
REMARK   98  A    between atoms: _223  and  _224
REMARK   99  A    between atoms: _227  and  _229
REMARK  100  A    between atoms: _229  and  _230
REMARK  101  A    between atoms: _229  and  _232
REMARK  102  A    between atoms: _232  and  _233
REMARK  103  A    between atoms: _233  and  _234
REMARK  104  A    between atoms: _236  and  _238
REMARK  105  A    between atoms: _238  and  _239
REMARK  106  A    between atoms: _238  and  _241
REMARK  107  A    between atoms: _241  and  _242
REMARK  108  A    between atoms: _245  and  _247
REMARK  109  A    between atoms: _247  and  _248
REMARK  110  A    between atoms: _250  and  _252
REMARK  111  A    between atoms: _252  and  _253
REMARK  112  A    between atoms: _252  and  _255
REMARK  113  A    between atoms: _255  and  _256
REMARK  114  A    between atoms: _259  and  _261
REMARK  115  A    between atoms: _261  and  _262
REMARK  116  A    between atoms: _261  and  _264
REMARK  117  A    between atoms: _267  and  _269
REMARK  118  A    between atoms: _269  and  _270
REMARK  119  A    between atoms: _269  and  _272
REMARK  120  A    between atoms: _272  and  _273
REMARK  121  A    between atoms: _273  and  _274
REMARK  122  A    between atoms: _274  and  _275
REMARK  123  A    between atoms: _284  and  _286
REMARK  124  A    between atoms: _286  and  _287
REMARK  125  A    between atoms: _286  and  _289
REMARK  126  A    between atoms: _289  and  _290
REMARK  127  A    between atoms: _293  and  _295
REMARK  128  A    between atoms: _295  and  _296
REMARK  129  A    between atoms: _295  and  _298
REMARK  130  A    between atoms: _298  and  _299
REMARK  131  A    between atoms: _302  and  _304
REMARK  132  A    between atoms: _304  and  _305
REMARK  133  A    between atoms: _304  and  _307
REMARK  134  A    between atoms: _307  and  _308
REMARK  135  A    between atoms: _314  and  _316
REMARK  136  A    between atoms: _316  and  _317
REMARK  137  A    between atoms: _320  and  _322
REMARK  138  A    between atoms: _322  and  _323
REMARK  139  A    between atoms: _322  and  _325
REMARK  140  A    between atoms: _325  and  _326
REMARK  141  A    between atoms: _329  and  _331
REMARK  142  A    between atoms: _331  and  _332
REMARK  143  A    between atoms: _331  and  _334
REMARK  144  A    between atoms: _334  and  _335
REMARK  145  A    between atoms: _338  and  _340
REMARK  146  A    between atoms: _340  and  _341
REMARK  147  A    between atoms: _340  and  _343
REMARK  148  A    between atoms: _343  and  _344
REMARK  149  A    between atoms: _347  and  _349
REMARK  150  A    between atoms: _349  and  _350
REMARK  151  A    between atoms: _349  and  _352
REMARK  152  A    between atoms: _352  and  _353
REMARK  153  A    between atoms: _353  and  _354
REMARK  154  A    between atoms: _359  and  _361
REMARK  155  A    between atoms: _361  and  _362
REMARK  156  A    between atoms: _361  and  _364
REMARK  157  A    between atoms: _364  and  _365
REMARK  158  A    between atoms: _365  and  _366
REMARK  159  A    between atoms: _366  and  _367
REMARK  160  A    between atoms: _367  and  _368
REMARK  161  A    between atoms: _372  and  _374
REMARK  162  A    between atoms: _374  and  _375
REMARK  163  A    between atoms: _374  and  _377
REMARK  164  A    between atoms: _379  and  _381
REMARK  165  A    between atoms: _381  and  _382
REMARK  166  A    between atoms: _381  and  _384
REMARK  167  A    between atoms: _387  and  _389
REMARK  168  A    between atoms: _389  and  _390
REMARK  169  A    between atoms: _389  and  _392
REMARK  170  A    between atoms: _392  and  _393
REMARK  171  A    between atoms: _393  and  _394
REMARK  172  A    between atoms: _397  and  _399
REMARK  173  A    between atoms: _399  and  _400
REMARK  174  A    between atoms: _402  and  _404
REMARK  175  A    between atoms: _404  and  _405
REMARK  176  A    between atoms: _404  and  _407
REMARK  177  A    between atoms: _407  and  _408
REMARK  178  A    between atoms: _408  and  _409
REMARK  179  A    between atoms: _411  and  _413
REMARK  180  A    between atoms: _413  and  _414
REMARK  181  A    between atoms: _413  and  _416
REMARK  182  A    between atoms: _419  and  _421
REMARK  183  A    between atoms: _421  and  _422
REMARK  184  A    between atoms: _421  and  _424
REMARK  185  A    between atoms: _424  and  _425
REMARK  186  A    between atoms: _425  and  _426
REMARK  187  A    between atoms: _429  and  _431
REMARK  188  A    between atoms: _431  and  _432
REMARK  189  A    between atoms: _431  and  _434
REMARK  190  A    between atoms: _434  and  _435
REMARK  191  A    between atoms: _438  and  _440
REMARK  192  A    between atoms: _440  and  _441
REMARK  193  A    between atoms: _440  and  _443
REMARK  194  A    between atoms: _443  and  _444
REMARK  195  A    between atoms: _450  and  _452
REMARK  196  A    between atoms: _452  and  _453
REMARK  197  A    between atoms: _452  and  _455
REMARK  198  A    between atoms: _455  and  _456
REMARK  199  A    between atoms: _459  and  _461
REMARK  200  A    between atoms: _461  and  _462
REMARK  201  A    between atoms: _461  and  _464
REMARK  202  A    between atoms: _464  and  _465
REMARK  203  A    between atoms: _465  and  _466
REMARK  204  A    between atoms: _468  and  _470
REMARK  205  A    between atoms: _470  and  _471
REMARK  206  A    between atoms: _470  and  _473
REMARK  207  A    between atoms: _473  and  _474
REMARK  208  A    between atoms: _477  and  _479
REMARK  209  A    between atoms: _479  and  _480
REMARK  210  A    between atoms: _479  and  _482
REMARK  211  A    between atoms: _482  and  _483
REMARK  212  A    between atoms: _486  and  _488
REMARK  213  A    between atoms: _488  and  _489
REMARK  214  A    between atoms: _488  and  _491
REMARK  215  A    between atoms: _491  and  _492
REMARK  216  A    between atoms: _492  and  _493
REMARK  217  A    between atoms: _495  and  _497
REMARK  218  A    between atoms: _497  and  _498
REMARK  219  A    between atoms: _497  and  _500
REMARK  220  A    between atoms: _500  and  _501
REMARK  221  A    between atoms: _503  and  _505
REMARK  222  A    between atoms: _505  and  _506
REMARK  223  A    between atoms: _505  and  _508
REMARK  224  A    between atoms: _508  and  _509
REMARK  225  A    between atoms: _509  and  _510
REMARK  226  A    between atoms: _510  and  _511
REMARK  227  A    between atoms: _511  and  _512
REMARK  228  A    between atoms: _516  and  _518
REMARK  229  A    between atoms: _518  and  _519
REMARK  230  A    between atoms: _521  and  _523
REMARK  231  A    between atoms: _523  and  _524
REMARK  232  A    between atoms: _523  and  _526
REMARK  233  A    between atoms: _526  and  _527
REMARK  234  A    between atoms: _527  and  _528
REMARK  235  A    between atoms: _530  and  _532
REMARK  236  A    between atoms: _532  and  _533
REMARK  237  A    between atoms: _532  and  _535
REMARK  238  A    between atoms: _535  and  _536
REMARK  239  A    between atoms: _536  and  _537
REMARK  240  A    between atoms: _540  and  _542
REMARK  241  A    between atoms: _542  and  _543
REMARK  242  A    between atoms: _542  and  _545
REMARK  243  A    between atoms: _545  and  _546
REMARK  244  A    between atoms: _551  and  _553
REMARK  245  A    between atoms: _553  and  _554
REMARK  246  A    between atoms: _553  and  _556
REMARK  247  A    between atoms: _556  and  _557
REMARK  248  A    between atoms: _560  and  _562
REMARK  249  A    between atoms: _562  and  _563
REMARK  250  A    between atoms: _562  and  _565
REMARK  251  A    between atoms: _565  and  _566
REMARK  252  A    between atoms: _571  and  _572
REMARK  253  A    between atoms: _574  and  _576
REMARK  254  A    between atoms: _576  and  _577
REMARK  255  A    between atoms: _576  and  _579
REMARK  256  A    between atoms: _579  and  _580
REMARK  257  A    between atoms: _582  and  _584
REMARK  258  A    between atoms: _584  and  _585
REMARK  259  A    between atoms: _584  and  _587
REMARK  260  A    between atoms: _587  and  _588
REMARK  261  A    between atoms: _588  and  _589
REMARK  262  A    between atoms: _591  and  _593
REMARK  263  A    between atoms: _593  and  _594
REMARK  264  A    between atoms: _593  and  _596
REMARK  265  A    between atoms: _596  and  _597
REMARK  266  A    between atoms: _597  and  _598
REMARK  267  A    between atoms: _598  and  _599
REMARK  268  A    between atoms: _599  and  _600
REMARK  269  A    between atoms: _604  and  _606
REMARK  270  A    between atoms: _606  and  _607
REMARK  271  A    between atoms: _606  and  _609
REMARK  272  A    between atoms: _612  and  _614
REMARK  273  A    between atoms: _614  and  _615
REMARK  274  A    between atoms: _614  and  _617
REMARK  275  A    between atoms: _617  and  _618
REMARK  276  A    between atoms: _621  and  _623
REMARK  277  A    between atoms: _623  and  _624
REMARK  278  A    between atoms: _623  and  _626
REMARK  279  A    between atoms: _626  and  _627
REMARK  280  A    between atoms: _630  and  _632
REMARK  281  A    between atoms: _632  and  _633
REMARK  282  A    between atoms: _632  and  _635
REMARK  283  A    between atoms: _635  and  _636
REMARK                            x       y       z     vdW  Elec       q    Type
REMARK                         _______ _______ _______ _____ _____    ______ ____
ROOT
ATOM      1  O   HOH     1     -24.025  -2.885  17.187  0.00  0.00    +0.000 OA
ENDROOT
TORSDOF 0
REMARK  Name = ../refined-set-2016/2p15/2p15_pocket.pdb
REMARK  283 active torsions:
REMARK  status: ('A' for Active; 'I' for Inactive)
REMARK    1  A    between atoms: _1  and  _3
REMARK    2  A    between atoms: _3  and  _4
REMARK    3  A    between atoms: _3  and  _6
REMARK    4  A    between atoms: _6  and  _7
REMARK    5  A    between atoms: _10  and  _12
REMARK    6  A    between atoms: _12  and  _13
REMARK    7  A    between atoms: _12  and  _15
REMARK    8  A    between atoms: _15  and  _16
REMARK    9  A    between atoms: _19  and  _21
REMARK   10  A    between atoms: _21  and  _22
REMARK   11  A    between atoms: _21  and  _24
REMARK   12  A    between atoms: _24  and  _25
REMARK   13  A    between atoms: _31  and  _33
REMARK   14  A    between atoms: _33  and  _34
REMARK   15  A    between atoms: _33  and  _36
REMARK   16  A    between atoms: _36  and  _37
REMARK   17  A    between atoms: _39  and  _41
REMARK   18  A    between atoms: _41  and  _42
REMARK   19  A    between atoms: _41  and  _44
REMARK   20  A    between atoms: _44  and  _45
REMARK   21  A    between atoms: _45  and  _46
REMARK   22  A    between atoms: _49  and  _51
REMARK   23  A    between atoms: _51  and  _52
REMARK   24  A    between atoms: _51  and  _54
REMARK   25  A    between atoms: _54  and  _55
REMARK   26  A    between atoms: _55  and  _56
REMARK   27  A    between atoms: _58  and  _60
REMARK   28  A    between atoms: _60  and  _61
REMARK   29  A    between atoms: _60  and  _63
REMARK   30  A    between atoms: _63  and  _64
REMARK   31  A    between atoms: _64  and  _65
REMARK   32  A    between atoms: _67  and  _69
REMARK   33  A    between atoms: _69  and  _70
REMARK   34  A    between atoms: _69  and  _72
REMARK   35  A    between atoms: _72  and  _73
REMARK   36  A    between atoms: _76  and  _78
REMARK   37  A    between atoms: _78  and  _79
REMARK   38  A    between atoms: _78  and  _81
REMARK   39  A    between atoms: _81  and  _82
REMARK   40  A    between atoms: _85  and  _87
REMARK   41  A    between atoms: _87  and  _88
REMARK   42  A    between atoms: _87  and  _90
REMARK   43  A    between atoms: _90  and  _91
REMARK   44  A    between atoms: _94  and  _96
REMARK   45  A    between atoms: _96  and  _97
REMARK   46  A    between atoms: _96  and  _99
REMARK   47  A    between atoms: _99  and  _100
REMARK   48  A    between atoms: _105  and  _107
REMARK   49  A    between atoms: _107  and  _108
REMARK   50  A    between atoms: _107  and  _110
REMARK   51  A    between atoms: _110  and  _111
REMARK   52  A    between atoms: _114  and  _116
REMARK   53  A    between atoms: _116  and  _117
REMARK   54  A    between atoms: _120  and  _122
REMARK   55  A    between atoms: _122  and  _123
REMARK   56  A    between atoms: _122  and  _125
REMARK   57  A    between atoms: _125  and  _126
REMARK   58  A    between atoms: _129  and  _131
REMARK   59  A    between atoms: _131  and  _132
REMARK   60  A    between atoms: _131  and  _134
REMARK   61  A    between atoms: _134  and  _135
REMARK   62  A    between atoms: _135  and  _136
REMARK   63  A    between atoms: _136  and  _137
REMARK   64  A    between atoms: _146  and  _148
REMARK   65  A    between atoms: _148  and  _149
REMARK   66  A    between atoms: _148  and  _151
REMARK   67  A    between atoms: _151  and  _152
REMARK   68  A    between atoms: _152  and  _153
REMARK   69  A    between atoms: _156  and  _158
REMARK   70  A    between atoms: _158  and  _159
REMARK   71  A    between atoms: _158  and  _161
REMARK   72  A    between atoms: _161  and  _162
REMARK   73  A    between atoms: _165  and  _167
REMARK   74  A    between atoms: _167  and  _168
REMARK   75  A    between atoms: _167  and  _170
REMARK   76  A    between atoms: _170  and  _171
REMARK   77  A    between atoms: _171  and  _172
REMARK   78  A    between atoms: _174  and  _176
REMARK   79  A    between atoms: _176  and  _177
REMARK   80  A    between atoms: _176  and  _179
REMARK   81  A    between atoms: _179  and  _180
REMARK   82  A    between atoms: _190  and  _192
REMARK   83  A    between atoms: _192  and  _193
REMARK   84  A    between atoms: _192  and  _195
REMARK   85  A    between atoms: _195  and  _196
REMARK   86  A    between atoms: _199  and  _201
REMARK   87  A    between atoms: _201  and  _202
REMARK   88  A    between atoms: _201  and  _204
REMARK   89  A    between atoms: _204  and  _205
REMARK   90  A    between atoms: _205  and  _206
REMARK   91  A    between atoms: _209  and  _211
REMARK   92  A    between atoms: _211  and  _212
REMARK   93  A    between atoms: _211  and  _214
REMARK   94  A    between atoms: _214  and  _215
REMARK   95  A    between atoms: _218  and  _220
REMARK   96  A    between atoms: _220  and  _221
REMARK   97  A    between atoms: _220  and  _223
REMARK   98  A    between atoms: _223  and  _224
REMARK   99  A    between atoms: _227  and  _229
REMARK  100  A    between atoms: _229  and  _230
REMARK  101  A    between atoms: _229  and  _232
REMARK  102  A    between atoms: _232  and  _233
REMARK  103  A    between atoms: _233  and  _234
REMARK  104  A    between atoms: _236  and  _238
REMARK  105  A    between atoms: _238  and  _239
REMARK  106  A    between atoms: _238  and  _241
REMARK  107  A    between atoms: _241  and  _242
REMARK  108  A    between atoms: _245  and  _247
REMARK  109  A    between atoms: _247  and  _248
REMARK  110  A    between atoms: _250  and  _252
REMARK  111  A    between atoms: _252  and  _253
REMARK  112  A    between atoms: _252  and  _255
REMARK  113  A    between atoms: _255  and  _256
REMARK  114  A    between atoms: _259  and  _261
REMARK  115  A    between atoms: _261  and  _262
REMARK  116  A    between atoms: _261  and  _264
REMARK  117  A    between atoms: _267  and  _269
REMARK  118  A    between atoms: _269  and  _270
REMARK  119  A    between atoms: _269  and  _272
REMARK  120  A    between atoms: _272  and  _273
REMARK  121  A    between atoms: _273  and  _274
REMARK  122  A    between atoms: _274  and  _275
REMARK  123  A    between atoms: _284  and  _286
REMARK  124  A    between atoms: _286  and  _287
REMARK  125  A    between atoms: _286  and  _289
REMARK  126  A    between atoms: _289  and  _290
REMARK  127  A    between atoms: _293  and  _295
REMARK  128  A    between atoms: _295  and  _296
REMARK  129  A    between atoms: _295  and  _298
REMARK  130  A    between atoms: _298  and  _299
REMARK  131  A    between atoms: _302  and  _304
REMARK  132  A    between atoms: _304  and  _305
REMARK  133  A    between atoms: _304  and  _307
REMARK  134  A    between atoms: _307  and  _308
REMARK  135  A    between atoms: _314  and  _316
REMARK  136  A    between atoms: _316  and  _317
REMARK  137  A    between atoms: _320  and  _322
REMARK  138  A    between atoms: _322  and  _323
REMARK  139  A    between atoms: _322  and  _325
REMARK  140  A    between atoms: _325  and  _326
REMARK  141  A    between atoms: _329  and  _331
REMARK  142  A    between atoms: _331  and  _332
REMARK  143  A    between atoms: _331  and  _334
REMARK  144  A    between atoms: _334  and  _335
REMARK  145  A    between atoms: _338  and  _340
REMARK  146  A    between atoms: _340  and  _341
REMARK  147  A    between atoms: _340  and  _343
REMARK  148  A    between atoms: _343  and  _344
REMARK  149  A    between atoms: _347  and  _349
REMARK  150  A    between atoms: _349  and  _350
REMARK  151  A    between atoms: _349  and  _352
REMARK  152  A    between atoms: _352  and  _353
REMARK  153  A    between atoms: _353  and  _354
REMARK  154  A    between atoms: _359  and  _361
REMARK  155  A    between atoms: _361  and  _362
REMARK  156  A    between atoms: _361  and  _364
REMARK  157  A    between atoms: _364  and  _365
REMARK  158  A    between atoms: _365  and  _366
REMARK  159  A    between atoms: _366  and  _367
REMARK  160  A    between atoms: _367  and  _368
REMARK  161  A    between atoms: _372  and  _374
REMARK  162  A    between atoms: _374  and  _375
REMARK  163  A    between atoms: _374  and  _377
REMARK  164  A    between atoms: _379  and  _381
REMARK  165  A    between atoms: _381  and  _382
REMARK  166  A    between atoms: _381  and  _384
REMARK  167  A    between atoms: _387  and  _389
REMARK  168  A    between atoms: _389  and  _390
REMARK  169  A    between atoms: _389  and  _392
REMARK  170  A    between atoms: _392  and  _393
REMARK  171  A    between atoms: _393  and  _394
REMARK  172  A    between atoms: _397  and  _399
REMARK  173  A    between atoms: _399  and  _400
REMARK  174  A    between atoms: _402  and  _404
REMARK  175  A    between atoms: _404  and  _405
REMARK  176  A    between atoms: _404  and  _407
REMARK  177  A    between atoms: _407  and  _408
REMARK  178  A    between atoms: _408  and  _409
REMARK  179  A    between atoms: _411  and  _413
REMARK  180  A    between atoms: _413  and  _414
REMARK  181  A    between atoms: _413  and  _416
REMARK  182  A    between atoms: _419  and  _421
REMARK  183  A    between atoms: _421  and  _422
REMARK  184  A    between atoms: _421  and  _424
REMARK  185  A    between atoms: _424  and  _425
REMARK  186  A    between atoms: _425  and  _426
REMARK  187  A    between atoms: _429  and  _431
REMARK  188  A    between atoms: _431  and  _432
REMARK  189  A    between atoms: _431  and  _434
REMARK  190  A    between atoms: _434  and  _435
REMARK  191  A    between atoms: _438  and  _440
REMARK  192  A    between atoms: _440  and  _441
REMARK  193  A    between atoms: _440  and  _443
REMARK  194  A    between atoms: _443  and  _444
REMARK  195  A    between atoms: _450  and  _452
REMARK  196  A    between atoms: _452  and  _453
REMARK  197  A    between atoms: _452  and  _455
REMARK  198  A    between atoms: _455  and  _456
REMARK  199  A    between atoms: _459  and  _461
REMARK  200  A    between atoms: _461  and  _462
REMARK  201  A    between atoms: _461  and  _464
REMARK  202  A    between atoms: _464  and  _465
REMARK  203  A    between atoms: _465  and  _466
REMARK  204  A    between atoms: _468  and  _470
REMARK  205  A    between atoms: _470  and  _471
REMARK  206  A    between atoms: _470  and  _473
REMARK  207  A    between atoms: _473  and  _474
REMARK  208  A    between atoms: _477  and  _479
REMARK  209  A    between atoms: _479  and  _480
REMARK  210  A    between atoms: _479  and  _482
REMARK  211  A    between atoms: _482  and  _483
REMARK  212  A    between atoms: _486  and  _488
REMARK  213  A    between atoms: _488  and  _489
REMARK  214  A    between atoms: _488  and  _491
REMARK  215  A    between atoms: _491  and  _492
REMARK  216  A    between atoms: _492  and  _493
REMARK  217  A    between atoms: _495  and  _497
REMARK  218  A    between atoms: _497  and  _498
REMARK  219  A    between atoms: _497  and  _500
REMARK  220  A    between atoms: _500  and  _501
REMARK  221  A    between atoms: _503  and  _505
REMARK  222  A    between atoms: _505  and  _506
REMARK  223  A    between atoms: _505  and  _508
REMARK  224  A    between atoms: _508  and  _509
REMARK  225  A    between atoms: _509  and  _510
REMARK  226  A    between atoms: _510  and  _511
REMARK  227  A    between atoms: _511  and  _512
REMARK  228  A    between atoms: _516  and  _518
REMARK  229  A    between atoms: _518  and  _519
REMARK  230  A    between atoms: _521  and  _523
REMARK  231  A    between atoms: _523  and  _524
REMARK  232  A    between atoms: _523  and  _526
REMARK  233  A    between atoms: _526  and  _527
REMARK  234  A    between atoms: _527  and  _528
REMARK  235  A    between atoms: _530  and  _532
REMARK  236  A    between atoms: _532  and  _533
REMARK  237  A    between atoms: _532  and  _535
REMARK  238  A    between atoms: _535  and  _536
REMARK  239  A    between atoms: _536  and  _537
REMARK  240  A    between atoms: _540  and  _542
REMARK  241  A    between atoms: _542  and  _543
REMARK  242  A    between atoms: _542  and  _545
REMARK  243  A    between atoms: _545  and  _546
REMARK  244  A    between atoms: _551  and  _553
REMARK  245  A    between atoms: _553  and  _554
REMARK  246  A    between atoms: _553  and  _556
REMARK  247  A    between atoms: _556  and  _557
REMARK  248  A    between atoms: _560  and  _562
REMARK  249  A    between atoms: _562  and  _563
REMARK  250  A    between atoms: _562  and  _565
REMARK  251  A    between atoms: _565  and  _566
REMARK  252  A    between atoms: _571  and  _572
REMARK  253  A    between atoms: _574  and  _576
REMARK  254  A    between atoms: _576  and  _577
REMARK  255  A    between atoms: _576  and  _579
REMARK  256  A    between atoms: _579  and  _580
REMARK  257  A    between atoms: _582  and  _584
REMARK  258  A    between atoms: _584  and  _585
REMARK  259  A    between atoms: _584  and  _587
REMARK  260  A    between atoms: _587  and  _588
REMARK  261  A    between atoms: _588  and  _589
REMARK  262  A    between atoms: _591  and  _593
REMARK  263  A    between atoms: _593  and  _594
REMARK  264  A    between atoms: _593  and  _596
REMARK  265  A    between atoms: _596  and  _597
REMARK  266  A    between atoms: _597  and  _598
REMARK  267  A    between atoms: _598  and  _599
REMARK  268  A    between atoms: _599  and  _600
REMARK  269  A    between atoms: _604  and  _606
REMARK  270  A    between atoms: _606  and  _607
REMARK  271  A    between atoms: _606  and  _609
REMARK  272  A    between atoms: _612  and  _614
REMARK  273  A    between atoms: _614  and  _615
REMARK  274  A    between atoms: _614  and  _617
REMARK  275  A    between atoms: _617  and  _618
REMARK  276  A    between atoms: _621  and  _623
REMARK  277  A    between atoms: _623  and  _624
REMARK  278  A    between atoms: _623  and  _626
REMARK  279  A    between atoms: _626  and  _627
REMARK  280  A    between atoms: _630  and  _632
REMARK  281  A    between atoms: _632  and  _633
REMARK  282  A    between atoms: _632  and  _635
REMARK  283  A    between atoms: _635  and  _636
REMARK                            x       y       z     vdW  Elec       q    Type
REMARK                         _______ _______ _______ _____ _____    ______ ____
ROOT
ATOM      1  O   HOH     1     -24.451  -0.145  20.877  0.00  0.00    +0.000 OA
ENDROOT
TORSDOF 0
REMARK  Name = ../refined-set-2016/2p15/2p15_pocket.pdb
REMARK  283 active torsions:
REMARK  status: ('A' for Active; 'I' for Inactive)
REMARK    1  A    between atoms: _1  and  _3
REMARK    2  A    between atoms: _3  and  _4
REMARK    3  A    between atoms: _3  and  _6
REMARK    4  A    between atoms: _6  and  _7
REMARK    5  A    between atoms: _10  and  _12
REMARK    6  A    between atoms: _12  and  _13
REMARK    7  A    between atoms: _12  and  _15
REMARK    8  A    between atoms: _15  and  _16
REMARK    9  A    between atoms: _19  and  _21
REMARK   10  A    between atoms: _21  and  _22
REMARK   11  A    between atoms: _21  and  _24
REMARK   12  A    between atoms: _24  and  _25
REMARK   13  A    between atoms: _31  and  _33
REMARK   14  A    between atoms: _33  and  _34
REMARK   15  A    between atoms: _33  and  _36
REMARK   16  A    between atoms: _36  and  _37
REMARK   17  A    between atoms: _39  and  _41
REMARK   18  A    between atoms: _41  and  _42
REMARK   19  A    between atoms: _41  and  _44
REMARK   20  A    between atoms: _44  and  _45
REMARK   21  A    between atoms: _45  and  _46
REMARK   22  A    between atoms: _49  and  _51
REMARK   23  A    between atoms: _51  and  _52
REMARK   24  A    between atoms: _51  and  _54
REMARK   25  A    between atoms: _54  and  _55
REMARK   26  A    between atoms: _55  and  _56
REMARK   27  A    between atoms: _58  and  _60
REMARK   28  A    between atoms: _60  and  _61
REMARK   29  A    between atoms: _60  and  _63
REMARK   30  A    between atoms: _63  and  _64
REMARK   31  A    between atoms: _64  and  _65
REMARK   32  A    between atoms: _67  and  _69
REMARK   33  A    between atoms: _69  and  _70
REMARK   34  A    between atoms: _69  and  _72
REMARK   35  A    between atoms: _72  and  _73
REMARK   36  A    between atoms: _76  and  _78
REMARK   37  A    between atoms: _78  and  _79
REMARK   38  A    between atoms: _78  and  _81
REMARK   39  A    between atoms: _81  and  _82
REMARK   40  A    between atoms: _85  and  _87
REMARK   41  A    between atoms: _87  and  _88
REMARK   42  A    between atoms: _87  and  _90
REMARK   43  A    between atoms: _90  and  _91
REMARK   44  A    between atoms: _94  and  _96
REMARK   45  A    between atoms: _96  and  _97
REMARK   46  A    between atoms: _96  and  _99
REMARK   47  A    between atoms: _99  and  _100
REMARK   48  A    between atoms: _105  and  _107
REMARK   49  A    between atoms: _107  and  _108
REMARK   50  A    between atoms: _107  and  _110
REMARK   51  A    between atoms: _110  and  _111
REMARK   52  A    between atoms: _114  and  _116
REMARK   53  A    between atoms: _116  and  _117
REMARK   54  A    between atoms: _120  and  _122
REMARK   55  A    between atoms: _122  and  _123
REMARK   56  A    between atoms: _122  and  _125
REMARK   57  A    between atoms: _125  and  _126
REMARK   58  A    between atoms: _129  and  _131
REMARK   59  A    between atoms: _131  and  _132
REMARK   60  A    between atoms: _131  and  _134
REMARK   61  A    between atoms: _134  and  _135
REMARK   62  A    between atoms: _135  and  _136
REMARK   63  A    between atoms: _136  and  _137
REMARK   64  A    between atoms: _146  and  _148
REMARK   65  A    between atoms: _148  and  _149
REMARK   66  A    between atoms: _148  and  _151
REMARK   67  A    between atoms: _151  and  _152
REMARK   68  A    between atoms: _152  and  _153
REMARK   69  A    between atoms: _156  and  _158
REMARK   70  A    between atoms: _158  and  _159
REMARK   71  A    between atoms: _158  and  _161
REMARK   72  A    between atoms: _161  and  _162
REMARK   73  A    between atoms: _165  and  _167
REMARK   74  A    between atoms: _167  and  _168
REMARK   75  A    between atoms: _167  and  _170
REMARK   76  A    between atoms: _170  and  _171
REMARK   77  A    between atoms: _171  and  _172
REMARK   78  A    between atoms: _174  and  _176
REMARK   79  A    between atoms: _176  and  _177
REMARK   80  A    between atoms: _176  and  _179
REMARK   81  A    between atoms: _179  and  _180
REMARK   82  A    between atoms: _190  and  _192
REMARK   83  A    between atoms: _192  and  _193
REMARK   84  A    between atoms: _192  and  _195
REMARK   85  A    between atoms: _195  and  _196
REMARK   86  A    between atoms: _199  and  _201
REMARK   87  A    between atoms: _201  and  _202
REMARK   88  A    between atoms: _201  and  _204
REMARK   89  A    between atoms: _204  and  _205
REMARK   90  A    between atoms: _205  and  _206
REMARK   91  A    between atoms: _209  and  _211
REMARK   92  A    between atoms: _211  and  _212
REMARK   93  A    between atoms: _211  and  _214
REMARK   94  A    between atoms: _214  and  _215
REMARK   95  A    between atoms: _218  and  _220
REMARK   96  A    between atoms: _220  and  _221
REMARK   97  A    between atoms: _220  and  _223
REMARK   98  A    between atoms: _223  and  _224
REMARK   99  A    between atoms: _227  and  _229
REMARK  100  A    between atoms: _229  and  _230
REMARK  101  A    between atoms: _229  and  _232
REMARK  102  A    between atoms: _232  and  _233
REMARK  103  A    between atoms: _233  and  _234
REMARK  104  A    between atoms: _236  and  _238
REMARK  105  A    between atoms: _238  and  _239
REMARK  106  A    between atoms: _238  and  _241
REMARK  107  A    between atoms: _241  and  _242
REMARK  108  A    between atoms: _245  and  _247
REMARK  109  A    between atoms: _247  and  _248
REMARK  110  A    between atoms: _250  and  _252
REMARK  111  A    between atoms: _252  and  _253
REMARK  112  A    between atoms: _252  and  _255
REMARK  113  A    between atoms: _255  and  _256
REMARK  114  A    between atoms: _259  and  _261
REMARK  115  A    between atoms: _261  and  _262
REMARK  116  A    between atoms: _261  and  _264
REMARK  117  A    between atoms: _267  and  _269
REMARK  118  A    between atoms: _269  and  _270
REMARK  119  A    between atoms: _269  and  _272
REMARK  120  A    between atoms: _272  and  _273
REMARK  121  A    between atoms: _273  and  _274
REMARK  122  A    between atoms: _274  and  _275
REMARK  123  A    between atoms: _284  and  _286
REMARK  124  A    between atoms: _286  and  _287
REMARK  125  A    between atoms: _286  and  _289
REMARK  126  A    between atoms: _289  and  _290
REMARK  127  A    between atoms: _293  and  _295
REMARK  128  A    between atoms: _295  and  _296
REMARK  129  A    between atoms: _295  and  _298
REMARK  130  A    between atoms: _298  and  _299
REMARK  131  A    between atoms: _302  and  _304
REMARK  132  A    between atoms: _304  and  _305
REMARK  133  A    between atoms: _304  and  _307
REMARK  134  A    between atoms: _307  and  _308
REMARK  135  A    between atoms: _314  and  _316
REMARK  136  A    between atoms: _316  and  _317
REMARK  137  A    between atoms: _320  and  _322
REMARK  138  A    between atoms: _322  and  _323
REMARK  139  A    between atoms: _322  and  _325
REMARK  140  A    between atoms: _325  and  _326
REMARK  141  A    between atoms: _329  and  _331
REMARK  142  A    between atoms: _331  and  _332
REMARK  143  A    between atoms: _331  and  _334
REMARK  144  A    between atoms: _334  and  _335
REMARK  145  A    between atoms: _338  and  _340
REMARK  146  A    between atoms: _340  and  _341
REMARK  147  A    between atoms: _340  and  _343
REMARK  148  A    between atoms: _343  and  _344
REMARK  149  A    between atoms: _347  and  _349
REMARK  150  A    between atoms: _349  and  _350
REMARK  151  A    between atoms: _349  and  _352
REMARK  152  A    between atoms: _352  and  _353
REMARK  153  A    between atoms: _353  and  _354
REMARK  154  A    between atoms: _359  and  _361
REMARK  155  A    between atoms: _361  and  _362
REMARK  156  A    between atoms: _361  and  _364
REMARK  157  A    between atoms: _364  and  _365
REMARK  158  A    between atoms: _365  and  _366
REMARK  159  A    between atoms: _366  and  _367
REMARK  160  A    between atoms: _367  and  _368
REMARK  161  A    between atoms: _372  and  _374
REMARK  162  A    between atoms: _374  and  _375
REMARK  163  A    between atoms: _374  and  _377
REMARK  164  A    between atoms: _379  and  _381
REMARK  165  A    between atoms: _381  and  _382
REMARK  166  A    between atoms: _381  and  _384
REMARK  167  A    between atoms: _387  and  _389
REMARK  168  A    between atoms: _389  and  _390
REMARK  169  A    between atoms: _389  and  _392
REMARK  170  A    between atoms: _392  and  _393
REMARK  171  A    between atoms: _393  and  _394
REMARK  172  A    between atoms: _397  and  _399
REMARK  173  A    between atoms: _399  and  _400
REMARK  174  A    between atoms: _402  and  _404
REMARK  175  A    between atoms: _404  and  _405
REMARK  176  A    between atoms: _404  and  _407
REMARK  177  A    between atoms: _407  and  _408
REMARK  178  A    between atoms: _408  and  _409
REMARK  179  A    between atoms: _411  and  _413
REMARK  180  A    between atoms: _413  and  _414
REMARK  181  A    between atoms: _413  and  _416
REMARK  182  A    between atoms: _419  and  _421
REMARK  183  A    between atoms: _421  and  _422
REMARK  184  A    between atoms: _421  and  _424
REMARK  185  A    between atoms: _424  and  _425
REMARK  186  A    between atoms: _425  and  _426
REMARK  187  A    between atoms: _429  and  _431
REMARK  188  A    between atoms: _431  and  _432
REMARK  189  A    between atoms: _431  and  _434
REMARK  190  A    between atoms: _434  and  _435
REMARK  191  A    between atoms: _438  and  _440
REMARK  192  A    between atoms: _440  and  _441
REMARK  193  A    between atoms: _440  and  _443
REMARK  194  A    between atoms: _443  and  _444
REMARK  195  A    between atoms: _450  and  _452
REMARK  196  A    between atoms: _452  and  _453
REMARK  197  A    between atoms: _452  and  _455
REMARK  198  A    between atoms: _455  and  _456
REMARK  199  A    between atoms: _459  and  _461
REMARK  200  A    between atoms: _461  and  _462
REMARK  201  A    between atoms: _461  and  _464
REMARK  202  A    between atoms: _464  and  _465
REMARK  203  A    between atoms: _465  and  _466
REMARK  204  A    between atoms: _468  and  _470
REMARK  205  A    between atoms: _470  and  _471
REMARK  206  A    between atoms: _470  and  _473
REMARK  207  A    between atoms: _473  and  _474
REMARK  208  A    between atoms: _477  and  _479
REMARK  209  A    between atoms: _479  and  _480
REMARK  210  A    between atoms: _479  and  _482
REMARK  211  A    between atoms: _482  and  _483
REMARK  212  A    between atoms: _486  and  _488
REMARK  213  A    between atoms: _488  and  _489
REMARK  214  A    between atoms: _488  and  _491
REMARK  215  A    between atoms: _491  and  _492
REMARK  216  A    between atoms: _492  and  _493
REMARK  217  A    between atoms: _495  and  _497
REMARK  218  A    between atoms: _497  and  _498
REMARK  219  A    between atoms: _497  and  _500
REMARK  220  A    between atoms: _500  and  _501
REMARK  221  A    between atoms: _503  and  _505
REMARK  222  A    between atoms: _505  and  _506
REMARK  223  A    between atoms: _505  and  _508
REMARK  224  A    between atoms: _508  and  _509
REMARK  225  A    between atoms: _509  and  _510
REMARK  226  A    between atoms: _510  and  _511
REMARK  227  A    between atoms: _511  and  _512
REMARK  228  A    between atoms: _516  and  _518
REMARK  229  A    between atoms: _518  and  _519
REMARK  230  A    between atoms: _521  and  _523
REMARK  231  A    between atoms: _523  and  _524
REMARK  232  A    between atoms: _523  and  _526
REMARK  233  A    between atoms: _526  and  _527
REMARK  234  A    between atoms: _527  and  _528
REMARK  235  A    between atoms: _530  and  _532
REMARK  236  A    between atoms: _532  and  _533
REMARK  237  A    between atoms: _532  and  _535
REMARK  238  A    between atoms: _535  and  _536
REMARK  239  A    between atoms: _536  and  _537
REMARK  240  A    between atoms: _540  and  _542
REMARK  241  A    between atoms: _542  and  _543
REMARK  242  A    between atoms: _542  and  _545
REMARK  243  A    between atoms: _545  and  _546
REMARK  244  A    between atoms: _551  and  _553
REMARK  245  A    between atoms: _553  and  _554
REMARK  246  A    between atoms: _553  and  _556
REMARK  247  A    between atoms: _556  and  _557
REMARK  248  A    between atoms: _560  and  _562
REMARK  249  A    between atoms: _562  and  _563
REMARK  250  A    between atoms: _562  and  _565
REMARK  251  A    between atoms: _565  and  _566
REMARK  252  A    between atoms: _571  and  _572
REMARK  253  A    between atoms: _574  and  _576
REMARK  254  A    between atoms: _576  and  _577
REMARK  255  A    between atoms: _576  and  _579
REMARK  256  A    between atoms: _579  and  _580
REMARK  257  A    between atoms: _582  and  _584
REMARK  258  A    between atoms: _584  and  _585
REMARK  259  A    between atoms: _584  and  _587
REMARK  260  A    between atoms: _587  and  _588
REMARK  261  A    between atoms: _588  and  _589
REMARK  262  A    between atoms: _591  and  _593
REMARK  263  A    between atoms: _593  and  _594
REMARK  264  A    between atoms: _593  and  _596
REMARK  265  A    between atoms: _596  and  _597
REMARK  266  A    between atoms: _597  and  _598
REMARK  267  A    between atoms: _598  and  _599
REMARK  268  A    between atoms: _599  and  _600
REMARK  269  A    between atoms: _604  and  _606
REMARK  270  A    between atoms: _606  and  _607
REMARK  271  A    between atoms: _606  and  _609
REMARK  272  A    between atoms: _612  and  _614
REMARK  273  A    between atoms: _614  and  _615
REMARK  274  A    between atoms: _614  and  _617
REMARK  275  A    between atoms: _617  and  _618
REMARK  276  A    between atoms: _621  and  _623
REMARK  277  A    between atoms: _623  and  _624
REMARK  278  A    between atoms: _623  and  _626
REMARK  279  A    between atoms: _626  and  _627
REMARK  280  A    between atoms: _630  and  _632
REMARK  281  A    between atoms: _632  and  _633
REMARK  282  A    between atoms: _632  and  _635
REMARK  283  A    between atoms: _635  and  _636
REMARK                            x       y       z     vdW  Elec       q    Type
REMARK                         _______ _______ _______ _____ _____    ______ ____
ROOT
ATOM      1  O   HOH     1     -24.120  -2.637  19.829  0.00  0.00    +0.000 OA
ENDROOT
TORSDOF 0
REMARK  Name = ../refined-set-2016/2p15/2p15_pocket.pdb
REMARK  283 active torsions:
REMARK  status: ('A' for Active; 'I' for Inactive)
REMARK    1  A    between atoms: _1  and  _3
REMARK    2  A    between atoms: _3  and  _4
REMARK    3  A    between atoms: _3  and  _6
REMARK    4  A    between atoms: _6  and  _7
REMARK    5  A    between atoms: _10  and  _12
REMARK    6  A    between atoms: _12  and  _13
REMARK    7  A    between atoms: _12  and  _15
REMARK    8  A    between atoms: _15  and  _16
REMARK    9  A    between atoms: _19  and  _21
REMARK   10  A    between atoms: _21  and  _22
REMARK   11  A    between atoms: _21  and  _24
REMARK   12  A    between atoms: _24  and  _25
REMARK   13  A    between atoms: _31  and  _33
REMARK   14  A    between atoms: _33  and  _34
REMARK   15  A    between atoms: _33  and  _36
REMARK   16  A    between atoms: _36  and  _37
REMARK   17  A    between atoms: _39  and  _41
REMARK   18  A    between atoms: _41  and  _42
REMARK   19  A    between atoms: _41  and  _44
REMARK   20  A    between atoms: _44  and  _45
REMARK   21  A    between atoms: _45  and  _46
REMARK   22  A    between atoms: _49  and  _51
REMARK   23  A    between atoms: _51  and  _52
REMARK   24  A    between atoms: _51  and  _54
REMARK   25  A    between atoms: _54  and  _55
REMARK   26  A    between atoms: _55  and  _56
REMARK   27  A    between atoms: _58  and  _60
REMARK   28  A    between atoms: _60  and  _61
REMARK   29  A    between atoms: _60  and  _63
REMARK   30  A    between atoms: _63  and  _64
REMARK   31  A    between atoms: _64  and  _65
REMARK   32  A    between atoms: _67  and  _69
REMARK   33  A    between atoms: _69  and  _70
REMARK   34  A    between atoms: _69  and  _72
REMARK   35  A    between atoms: _72  and  _73
REMARK   36  A    between atoms: _76  and  _78
REMARK   37  A    between atoms: _78  and  _79
REMARK   38  A    between atoms: _78  and  _81
REMARK   39  A    between atoms: _81  and  _82
REMARK   40  A    between atoms: _85  and  _87
REMARK   41  A    between atoms: _87  and  _88
REMARK   42  A    between atoms: _87  and  _90
REMARK   43  A    between atoms: _90  and  _91
REMARK   44  A    between atoms: _94  and  _96
REMARK   45  A    between atoms: _96  and  _97
REMARK   46  A    between atoms: _96  and  _99
REMARK   47  A    between atoms: _99  and  _100
REMARK   48  A    between atoms: _105  and  _107
REMARK   49  A    between atoms: _107  and  _108
REMARK   50  A    between atoms: _107  and  _110
REMARK   51  A    between atoms: _110  and  _111
REMARK   52  A    between atoms: _114  and  _116
REMARK   53  A    between atoms: _116  and  _117
REMARK   54  A    between atoms: _120  and  _122
REMARK   55  A    between atoms: _122  and  _123
REMARK   56  A    between atoms: _122  and  _125
REMARK   57  A    between atoms: _125  and  _126
REMARK   58  A    between atoms: _129  and  _131
REMARK   59  A    between atoms: _131  and  _132
REMARK   60  A    between atoms: _131  and  _134
REMARK   61  A    between atoms: _134  and  _135
REMARK   62  A    between atoms: _135  and  _136
REMARK   63  A    between atoms: _136  and  _137
REMARK   64  A    between atoms: _146  and  _148
REMARK   65  A    between atoms: _148  and  _149
REMARK   66  A    between atoms: _148  and  _151
REMARK   67  A    between atoms: _151  and  _152
REMARK   68  A    between atoms: _152  and  _153
REMARK   69  A    between atoms: _156  and  _158
REMARK   70  A    between atoms: _158  and  _159
REMARK   71  A    between atoms: _158  and  _161
REMARK   72  A    between atoms: _161  and  _162
REMARK   73  A    between atoms: _165  and  _167
REMARK   74  A    between atoms: _167  and  _168
REMARK   75  A    between atoms: _167  and  _170
REMARK   76  A    between atoms: _170  and  _171
REMARK   77  A    between atoms: _171  and  _172
REMARK   78  A    between atoms: _174  and  _176
REMARK   79  A    between atoms: _176  and  _177
REMARK   80  A    between atoms: _176  and  _179
REMARK   81  A    between atoms: _179  and  _180
REMARK   82  A    between atoms: _190  and  _192
REMARK   83  A    between atoms: _192  and  _193
REMARK   84  A    between atoms: _192  and  _195
REMARK   85  A    between atoms: _195  and  _196
REMARK   86  A    between atoms: _199  and  _201
REMARK   87  A    between atoms: _201  and  _202
REMARK   88  A    between atoms: _201  and  _204
REMARK   89  A    between atoms: _204  and  _205
REMARK   90  A    between atoms: _205  and  _206
REMARK   91  A    between atoms: _209  and  _211
REMARK   92  A    between atoms: _211  and  _212
REMARK   93  A    between atoms: _211  and  _214
REMARK   94  A    between atoms: _214  and  _215
REMARK   95  A    between atoms: _218  and  _220
REMARK   96  A    between atoms: _220  and  _221
REMARK   97  A    between atoms: _220  and  _223
REMARK   98  A    between atoms: _223  and  _224
REMARK   99  A    between atoms: _227  and  _229
REMARK  100  A    between atoms: _229  and  _230
REMARK  101  A    between atoms: _229  and  _232
REMARK  102  A    between atoms: _232  and  _233
REMARK  103  A    between atoms: _233  and  _234
REMARK  104  A    between atoms: _236  and  _238
REMARK  105  A    between atoms: _238  and  _239
REMARK  106  A    between atoms: _238  and  _241
REMARK  107  A    between atoms: _241  and  _242
REMARK  108  A    between atoms: _245  and  _247
REMARK  109  A    between atoms: _247  and  _248
REMARK  110  A    between atoms: _250  and  _252
REMARK  111  A    between atoms: _252  and  _253
REMARK  112  A    between atoms: _252  and  _255
REMARK  113  A    between atoms: _255  and  _256
REMARK  114  A    between atoms: _259  and  _261
REMARK  115  A    between atoms: _261  and  _262
REMARK  116  A    between atoms: _261  and  _264
REMARK  117  A    between atoms: _267  and  _269
REMARK  118  A    between atoms: _269  and  _270
REMARK  119  A    between atoms: _269  and  _272
REMARK  120  A    between atoms: _272  and  _273
REMARK  121  A    between atoms: _273  and  _274
REMARK  122  A    between atoms: _274  and  _275
REMARK  123  A    between atoms: _284  and  _286
REMARK  124  A    between atoms: _286  and  _287
REMARK  125  A    between atoms: _286  and  _289
REMARK  126  A    between atoms: _289  and  _290
REMARK  127  A    between atoms: _293  and  _295
REMARK  128  A    between atoms: _295  and  _296
REMARK  129  A    between atoms: _295  and  _298
REMARK  130  A    between atoms: _298  and  _299
REMARK  131  A    between atoms: _302  and  _304
REMARK  132  A    between atoms: _304  and  _305
REMARK  133  A    between atoms: _304  and  _307
REMARK  134  A    between atoms: _307  and  _308
REMARK  135  A    between atoms: _314  and  _316
REMARK  136  A    between atoms: _316  and  _317
REMARK  137  A    between atoms: _320  and  _322
REMARK  138  A    between atoms: _322  and  _323
REMARK  139  A    between atoms: _322  and  _325
REMARK  140  A    between atoms: _325  and  _326
REMARK  141  A    between atoms: _329  and  _331
REMARK  142  A    between atoms: _331  and  _332
REMARK  143  A    between atoms: _331  and  _334
REMARK  144  A    between atoms: _334  and  _335
REMARK  145  A    between atoms: _338  and  _340
REMARK  146  A    between atoms: _340  and  _341
REMARK  147  A    between atoms: _340  and  _343
REMARK  148  A    between atoms: _343  and  _344
REMARK  149  A    between atoms: _347  and  _349
REMARK  150  A    between atoms: _349  and  _350
REMARK  151  A    between atoms: _349  and  _352
REMARK  152  A    between atoms: _352  and  _353
REMARK  153  A    between atoms: _353  and  _354
REMARK  154  A    between atoms: _359  and  _361
REMARK  155  A    between atoms: _361  and  _362
REMARK  156  A    between atoms: _361  and  _364
REMARK  157  A    between atoms: _364  and  _365
REMARK  158  A    between atoms: _365  and  _366
REMARK  159  A    between atoms: _366  and  _367
REMARK  160  A    between atoms: _367  and  _368
REMARK  161  A    between atoms: _372  and  _374
REMARK  162  A    between atoms: _374  and  _375
REMARK  163  A    between atoms: _374  and  _377
REMARK  164  A    between atoms: _379  and  _381
REMARK  165  A    between atoms: _381  and  _382
REMARK  166  A    between atoms: _381  and  _384
REMARK  167  A    between atoms: _387  and  _389
REMARK  168  A    between atoms: _389  and  _390
REMARK  169  A    between atoms: _389  and  _392
REMARK  170  A    between atoms: _392  and  _393
REMARK  171  A    between atoms: _393  and  _394
REMARK  172  A    between atoms: _397  and  _399
REMARK  173  A    between atoms: _399  and  _400
REMARK  174  A    between atoms: _402  and  _404
REMARK  175  A    between atoms: _404  and  _405
REMARK  176  A    between atoms: _404  and  _407
REMARK  177  A    between atoms: _407  and  _408
REMARK  178  A    between atoms: _408  and  _409
REMARK  179  A    between atoms: _411  and  _413
REMARK  180  A    between atoms: _413  and  _414
REMARK  181  A    between atoms: _413  and  _416
REMARK  182  A    between atoms: _419  and  _421
REMARK  183  A    between atoms: _421  and  _422
REMARK  184  A    between atoms: _421  and  _424
REMARK  185  A    between atoms: _424  and  _425
REMARK  186  A    between atoms: _425  and  _426
REMARK  187  A    between atoms: _429  and  _431
REMARK  188  A    between atoms: _431  and  _432
REMARK  189  A    between atoms: _431  and  _434
REMARK  190  A    between atoms: _434  and  _435
REMARK  191  A    between atoms: _438  and  _440
REMARK  192  A    between atoms: _440  and  _441
REMARK  193  A    between atoms: _440  and  _443
REMARK  194  A    between atoms: _443  and  _444
REMARK  195  A    between atoms: _450  and  _452
REMARK  196  A    between atoms: _452  and  _453
REMARK  197  A    between atoms: _452  and  _455
REMARK  198  A    between atoms: _455  and  _456
REMARK  199  A    between atoms: _459  and  _461
REMARK  200  A    between atoms: _461  and  _462
REMARK  201  A    between atoms: _461  and  _464
REMARK  202  A    between atoms: _464  and  _465
REMARK  203  A    between atoms: _465  and  _466
REMARK  204  A    between atoms: _468  and  _470
REMARK  205  A    between atoms: _470  and  _471
REMARK  206  A    between atoms: _470  and  _473
REMARK  207  A    between atoms: _473  and  _474
REMARK  208  A    between atoms: _477  and  _479
REMARK  209  A    between atoms: _479  and  _480
REMARK  210  A    between atoms: _479  and  _482
REMARK  211  A    between atoms: _482  and  _483
REMARK  212  A    between atoms: _486  and  _488
REMARK  213  A    between atoms: _488  and  _489
REMARK  214  A    between atoms: _488  and  _491
REMARK  215  A    between atoms: _491  and  _492
REMARK  216  A    between atoms: _492  and  _493
REMARK  217  A    between atoms: _495  and  _497
REMARK  218  A    between atoms: _497  and  _498
REMARK  219  A    between atoms: _497  and  _500
REMARK  220  A    between atoms: _500  and  _501
REMARK  221  A    between atoms: _503  and  _505
REMARK  222  A    between atoms: _505  and  _506
REMARK  223  A    between atoms: _505  and  _508
REMARK  224  A    between atoms: _508  and  _509
REMARK  225  A    between atoms: _509  and  _510
REMARK  226  A    between atoms: _510  and  _511
REMARK  227  A    between atoms: _511  and  _512
REMARK  228  A    between atoms: _516  and  _518
REMARK  229  A    between atoms: _518  and  _519
REMARK  230  A    between atoms: _521  and  _523
REMARK  231  A    between atoms: _523  and  _524
REMARK  232  A    between atoms: _523  and  _526
REMARK  233  A    between atoms: _526  and  _527
REMARK  234  A    between atoms: _527  and  _528
REMARK  235  A    between atoms: _530  and  _532
REMARK  236  A    between atoms: _532  and  _533
REMARK  237  A    between atoms: _532  and  _535
REMARK  238  A    between atoms: _535  and  _536
REMARK  239  A    between atoms: _536  and  _537
REMARK  240  A    between atoms: _540  and  _542
REMARK  241  A    between atoms: _542  and  _543
REMARK  242  A    between atoms: _542  and  _545
REMARK  243  A    between atoms: _545  and  _546
REMARK  244  A    between atoms: _551  and  _553
REMARK  245  A    between atoms: _553  and  _554
REMARK  246  A    between atoms: _553  and  _556
REMARK  247  A    between atoms: _556  and  _557
REMARK  248  A    between atoms: _560  and  _562
REMARK  249  A    between atoms: _562  and  _563
REMARK  250  A    between atoms: _562  and  _565
REMARK  251  A    between atoms: _565  and  _566
REMARK  252  A    between atoms: _571  and  _572
REMARK  253  A    between atoms: _574  and  _576
REMARK  254  A    between atoms: _576  and  _577
REMARK  255  A    between atoms: _576  and  _579
REMARK  256  A    between atoms: _579  and  _580
REMARK  257  A    between atoms: _582  and  _584
REMARK  258  A    between atoms: _584  and  _585
REMARK  259  A    between atoms: _584  and  _587
REMARK  260  A    between atoms: _587  and  _588
REMARK  261  A    between atoms: _588  and  _589
REMARK  262  A    between atoms: _591  and  _593
REMARK  263  A    between atoms: _593  and  _594
REMARK  264  A    between atoms: _593  and  _596
REMARK  265  A    between atoms: _596  and  _597
REMARK  266  A    between atoms: _597  and  _598
REMARK  267  A    between atoms: _598  and  _599
REMARK  268  A    between atoms: _599  and  _600
REMARK  269  A    between atoms: _604  and  _606
REMARK  270  A    between atoms: _606  and  _607
REMARK  271  A    between atoms: _606  and  _609
REMARK  272  A    between atoms: _612  and  _614
REMARK  273  A    between atoms: _614  and  _615
REMARK  274  A    between atoms: _614  and  _617
REMARK  275  A    between atoms: _617  and  _618
REMARK  276  A    between atoms: _621  and  _623
REMARK  277  A    between atoms: _623  and  _624
REMARK  278  A    between atoms: _623  and  _626
REMARK  279  A    between atoms: _626  and  _627
REMARK  280  A    between atoms: _630  and  _632
REMARK  281  A    between atoms: _632  and  _633
REMARK  282  A    between atoms: _632  and  _635
REMARK  283  A    between atoms: _635  and  _636
REMARK                            x       y       z     vdW  Elec       q    Type
REMARK                         _______ _______ _______ _____ _____    ______ ____
ROOT
ATOM      1  O   HOH     1     -22.475   1.750  16.746  0.00  0.00    +0.000 OA
ENDROOT
TORSDOF 0
REMARK  Name = ../refined-set-2016/2p15/2p15_pocket.pdb
REMARK  283 active torsions:
REMARK  status: ('A' for Active; 'I' for Inactive)
REMARK    1  A    between atoms: _1  and  _3
REMARK    2  A    between atoms: _3  and  _4
REMARK    3  A    between atoms: _3  and  _6
REMARK    4  A    between atoms: _6  and  _7
REMARK    5  A    between atoms: _10  and  _12
REMARK    6  A    between atoms: _12  and  _13
REMARK    7  A    between atoms: _12  and  _15
REMARK    8  A    between atoms: _15  and  _16
REMARK    9  A    between atoms: _19  and  _21
REMARK   10  A    between atoms: _21  and  _22
REMARK   11  A    between atoms: _21  and  _24
REMARK   12  A    between atoms: _24  and  _25
REMARK   13  A    between atoms: _31  and  _33
REMARK   14  A    between atoms: _33  and  _34
REMARK   15  A    between atoms: _33  and  _36
REMARK   16  A    between atoms: _36  and  _37
REMARK   17  A    between atoms: _39  and  _41
REMARK   18  A    between atoms: _41  and  _42
REMARK   19  A    between atoms: _41  and  _44
REMARK   20  A    between atoms: _44  and  _45
REMARK   21  A    between atoms: _45  and  _46
REMARK   22  A    between atoms: _49  and  _51
REMARK   23  A    between atoms: _51  and  _52
REMARK   24  A    between atoms: _51  and  _54
REMARK   25  A    between atoms: _54  and  _55
REMARK   26  A    between atoms: _55  and  _56
REMARK   27  A    between atoms: _58  and  _60
REMARK   28  A    between atoms: _60  and  _61
REMARK   29  A    between atoms: _60  and  _63
REMARK   30  A    between atoms: _63  and  _64
REMARK   31  A    between atoms: _64  and  _65
REMARK   32  A    between atoms: _67  and  _69
REMARK   33  A    between atoms: _69  and  _70
REMARK   34  A    between atoms: _69  and  _72
REMARK   35  A    between atoms: _72  and  _73
REMARK   36  A    between atoms: _76  and  _78
REMARK   37  A    between atoms: _78  and  _79
REMARK   38  A    between atoms: _78  and  _81
REMARK   39  A    between atoms: _81  and  _82
REMARK   40  A    between atoms: _85  and  _87
REMARK   41  A    between atoms: _87  and  _88
REMARK   42  A    between atoms: _87  and  _90
REMARK   43  A    between atoms: _90  and  _91
REMARK   44  A    between atoms: _94  and  _96
REMARK   45  A    between atoms: _96  and  _97
REMARK   46  A    between atoms: _96  and  _99
REMARK   47  A    between atoms: _99  and  _100
REMARK   48  A    between atoms: _105  and  _107
REMARK   49  A    between atoms: _107  and  _108
REMARK   50  A    between atoms: _107  and  _110
REMARK   51  A    between atoms: _110  and  _111
REMARK   52  A    between atoms: _114  and  _116
REMARK   53  A    between atoms: _116  and  _117
REMARK   54  A    between atoms: _120  and  _122
REMARK   55  A    between atoms: _122  and  _123
REMARK   56  A    between atoms: _122  and  _125
REMARK   57  A    between atoms: _125  and  _126
REMARK   58  A    between atoms: _129  and  _131
REMARK   59  A    between atoms: _131  and  _132
REMARK   60  A    between atoms: _131  and  _134
REMARK   61  A    between atoms: _134  and  _135
REMARK   62  A    between atoms: _135  and  _136
REMARK   63  A    between atoms: _136  and  _137
REMARK   64  A    between atoms: _146  and  _148
REMARK   65  A    between atoms: _148  and  _149
REMARK   66  A    between atoms: _148  and  _151
REMARK   67  A    between atoms: _151  and  _152
REMARK   68  A    between atoms: _152  and  _153
REMARK   69  A    between atoms: _156  and  _158
REMARK   70  A    between atoms: _158  and  _159
REMARK   71  A    between atoms: _158  and  _161
REMARK   72  A    between atoms: _161  and  _162
REMARK   73  A    between atoms: _165  and  _167
REMARK   74  A    between atoms: _167  and  _168
REMARK   75  A    between atoms: _167  and  _170
REMARK   76  A    between atoms: _170  and  _171
REMARK   77  A    between atoms: _171  and  _172
REMARK   78  A    between atoms: _174  and  _176
REMARK   79  A    between atoms: _176  and  _177
REMARK   80  A    between atoms: _176  and  _179
REMARK   81  A    between atoms: _179  and  _180
REMARK   82  A    between atoms: _190  and  _192
REMARK   83  A    between atoms: _192  and  _193
REMARK   84  A    between atoms: _192  and  _195
REMARK   85  A    between atoms: _195  and  _196
REMARK   86  A    between atoms: _199  and  _201
REMARK   87  A    between atoms: _201  and  _202
REMARK   88  A    between atoms: _201  and  _204
REMARK   89  A    between atoms: _204  and  _205
REMARK   90  A    between atoms: _205  and  _206
REMARK   91  A    between atoms: _209  and  _211
REMARK   92  A    between atoms: _211  and  _212
REMARK   93  A    between atoms: _211  and  _214
REMARK   94  A    between atoms: _214  and  _215
REMARK   95  A    between atoms: _218  and  _220
REMARK   96  A    between atoms: _220  and  _221
REMARK   97  A    between atoms: _220  and  _223
REMARK   98  A    between atoms: _223  and  _224
REMARK   99  A    between atoms: _227  and  _229
REMARK  100  A    between atoms: _229  and  _230
REMARK  101  A    between atoms: _229  and  _232
REMARK  102  A    between atoms: _232  and  _233
REMARK  103  A    between atoms: _233  and  _234
REMARK  104  A    between atoms: _236  and  _238
REMARK  105  A    between atoms: _238  and  _239
REMARK  106  A    between atoms: _238  and  _241
REMARK  107  A    between atoms: _241  and  _242
REMARK  108  A    between atoms: _245  and  _247
REMARK  109  A    between atoms: _247  and  _248
REMARK  110  A    between atoms: _250  and  _252
REMARK  111  A    between atoms: _252  and  _253
REMARK  112  A    between atoms: _252  and  _255
REMARK  113  A    between atoms: _255  and  _256
REMARK  114  A    between atoms: _259  and  _261
REMARK  115  A    between atoms: _261  and  _262
REMARK  116  A    between atoms: _261  and  _264
REMARK  117  A    between atoms: _267  and  _269
REMARK  118  A    between atoms: _269  and  _270
REMARK  119  A    between atoms: _269  and  _272
REMARK  120  A    between atoms: _272  and  _273
REMARK  121  A    between atoms: _273  and  _274
REMARK  122  A    between atoms: _274  and  _275
REMARK  123  A    between atoms: _284  and  _286
REMARK  124  A    between atoms: _286  and  _287
REMARK  125  A    between atoms: _286  and  _289
REMARK  126  A    between atoms: _289  and  _290
REMARK  127  A    between atoms: _293  and  _295
REMARK  128  A    between atoms: _295  and  _296
REMARK  129  A    between atoms: _295  and  _298
REMARK  130  A    between atoms: _298  and  _299
REMARK  131  A    between atoms: _302  and  _304
REMARK  132  A    between atoms: _304  and  _305
REMARK  133  A    between atoms: _304  and  _307
REMARK  134  A    between atoms: _307  and  _308
REMARK  135  A    between atoms: _314  and  _316
REMARK  136  A    between atoms: _316  and  _317
REMARK  137  A    between atoms: _320  and  _322
REMARK  138  A    between atoms: _322  and  _323
REMARK  139  A    between atoms: _322  and  _325
REMARK  140  A    between atoms: _325  and  _326
REMARK  141  A    between atoms: _329  and  _331
REMARK  142  A    between atoms: _331  and  _332
REMARK  143  A    between atoms: _331  and  _334
REMARK  144  A    between atoms: _334  and  _335
REMARK  145  A    between atoms: _338  and  _340
REMARK  146  A    between atoms: _340  and  _341
REMARK  147  A    between atoms: _340  and  _343
REMARK  148  A    between atoms: _343  and  _344
REMARK  149  A    between atoms: _347  and  _349
REMARK  150  A    between atoms: _349  and  _350
REMARK  151  A    between atoms: _349  and  _352
REMARK  152  A    between atoms: _352  and  _353
REMARK  153  A    between atoms: _353  and  _354
REMARK  154  A    between atoms: _359  and  _361
REMARK  155  A    between atoms: _361  and  _362
REMARK  156  A    between atoms: _361  and  _364
REMARK  157  A    between atoms: _364  and  _365
REMARK  158  A    between atoms: _365  and  _366
REMARK  159  A    between atoms: _366  and  _367
REMARK  160  A    between atoms: _367  and  _368
REMARK  161  A    between atoms: _372  and  _374
REMARK  162  A    between atoms: _374  and  _375
REMARK  163  A    between atoms: _374  and  _377
REMARK  164  A    between atoms: _379  and  _381
REMARK  165  A    between atoms: _381  and  _382
REMARK  166  A    between atoms: _381  and  _384
REMARK  167  A    between atoms: _387  and  _389
REMARK  168  A    between atoms: _389  and  _390
REMARK  169  A    between atoms: _389  and  _392
REMARK  170  A    between atoms: _392  and  _393
REMARK  171  A    between atoms: _393  and  _394
REMARK  172  A    between atoms: _397  and  _399
REMARK  173  A    between atoms: _399  and  _400
REMARK  174  A    between atoms: _402  and  _404
REMARK  175  A    between atoms: _404  and  _405
REMARK  176  A    between atoms: _404  and  _407
REMARK  177  A    between atoms: _407  and  _408
REMARK  178  A    between atoms: _408  and  _409
REMARK  179  A    between atoms: _411  and  _413
REMARK  180  A    between atoms: _413  and  _414
REMARK  181  A    between atoms: _413  and  _416
REMARK  182  A    between atoms: _419  and  _421
REMARK  183  A    between atoms: _421  and  _422
REMARK  184  A    between atoms: _421  and  _424
REMARK  185  A    between atoms: _424  and  _425
REMARK  186  A    between atoms: _425  and  _426
REMARK  187  A    between atoms: _429  and  _431
REMARK  188  A    between atoms: _431  and  _432
REMARK  189  A    between atoms: _431  and  _434
REMARK  190  A    between atoms: _434  and  _435
REMARK  191  A    between atoms: _438  and  _440
REMARK  192  A    between atoms: _440  and  _441
REMARK  193  A    between atoms: _440  and  _443
REMARK  194  A    between atoms: _443  and  _444
REMARK  195  A    between atoms: _450  and  _452
REMARK  196  A    between atoms: _452  and  _453
REMARK  197  A    between atoms: _452  and  _455
REMARK  198  A    between atoms: _455  and  _456
REMARK  199  A    between atoms: _459  and  _461
REMARK  200  A    between atoms: _461  and  _462
REMARK  201  A    between atoms: _461  and  _464
REMARK  202  A    between atoms: _464  and  _465
REMARK  203  A    between atoms: _465  and  _466
REMARK  204  A    between atoms: _468  and  _470
REMARK  205  A    between atoms: _470  and  _471
REMARK  206  A    between atoms: _470  and  _473
REMARK  207  A    between atoms: _473  and  _474
REMARK  208  A    between atoms: _477  and  _479
REMARK  209  A    between atoms: _479  and  _480
REMARK  210  A    between atoms: _479  and  _482
REMARK  211  A    between atoms: _482  and  _483
REMARK  212  A    between atoms: _486  and  _488
REMARK  213  A    between atoms: _488  and  _489
REMARK  214  A    between atoms: _488  and  _491
REMARK  215  A    between atoms: _491  and  _492
REMARK  216  A    between atoms: _492  and  _493
REMARK  217  A    between atoms: _495  and  _497
REMARK  218  A    between atoms: _497  and  _498
REMARK  219  A    between atoms: _497  and  _500
REMARK  220  A    between atoms: _500  and  _501
REMARK  221  A    between atoms: _503  and  _505
REMARK  222  A    between atoms: _505  and  _506
REMARK  223  A    between atoms: _505  and  _508
REMARK  224  A    between atoms: _508  and  _509
REMARK  225  A    between atoms: _509  and  _510
REMARK  226  A    between atoms: _510  and  _511
REMARK  227  A    between atoms: _511  and  _512
REMARK  228  A    between atoms: _516  and  _518
REMARK  229  A    between atoms: _518  and  _519
REMARK  230  A    between atoms: _521  and  _523
REMARK  231  A    between atoms: _523  and  _524
REMARK  232  A    between atoms: _523  and  _526
REMARK  233  A    between atoms: _526  and  _527
REMARK  234  A    between atoms: _527  and  _528
REMARK  235  A    between atoms: _530  and  _532
REMARK  236  A    between atoms: _532  and  _533
REMARK  237  A    between atoms: _532  and  _535
REMARK  238  A    between atoms: _535  and  _536
REMARK  239  A    between atoms: _536  and  _537
REMARK  240  A    between atoms: _540  and  _542
REMARK  241  A    between atoms: _542  and  _543
REMARK  242  A    between atoms: _542  and  _545
REMARK  243  A    between atoms: _545  and  _546
REMARK  244  A    between atoms: _551  and  _553
REMARK  245  A    between atoms: _553  and  _554
REMARK  246  A    between atoms: _553  and  _556
REMARK  247  A    between atoms: _556  and  _557
REMARK  248  A    between atoms: _560  and  _562
REMARK  249  A    between atoms: _562  and  _563
REMARK  250  A    between atoms: _562  and  _565
REMARK  251  A    between atoms: _565  and  _566
REMARK  252  A    between atoms: _571  and  _572
REMARK  253  A    between atoms: _574  and  _576
REMARK  254  A    between atoms: _576  and  _577
REMARK  255  A    between atoms: _576  and  _579
REMARK  256  A    between atoms: _579  and  _580
REMARK  257  A    between atoms: _582  and  _584
REMARK  258  A    between atoms: _584  and  _585
REMARK  259  A    between atoms: _584  and  _587
REMARK  260  A    between atoms: _587  and  _588
REMARK  261  A    between atoms: _588  and  _589
REMARK  262  A    between atoms: _591  and  _593
REMARK  263  A    between atoms: _593  and  _594
REMARK  264  A    between atoms: _593  and  _596
REMARK  265  A    between atoms: _596  and  _597
REMARK  266  A    between atoms: _597  and  _598
REMARK  267  A    between atoms: _598  and  _599
REMARK  268  A    between atoms: _599  and  _600
REMARK  269  A    between atoms: _604  and  _606
REMARK  270  A    between atoms: _606  and  _607
REMARK  271  A    between atoms: _606  and  _609
REMARK  272  A    between atoms: _612  and  _614
REMARK  273  A    between atoms: _614  and  _615
REMARK  274  A    between atoms: _614  and  _617
REMARK  275  A    between atoms: _617  and  _618
REMARK  276  A    between atoms: _621  and  _623
REMARK  277  A    between atoms: _623  and  _624
REMARK  278  A    between atoms: _623  and  _626
REMARK  279  A    between atoms: _626  and  _627
REMARK  280  A    between atoms: _630  and  _632
REMARK  281  A    between atoms: _632  and  _633
REMARK  282  A    between atoms: _632  and  _635
REMARK  283  A    between atoms: _635  and  _636
REMARK                            x       y       z     vdW  Elec       q    Type
REMARK                         _______ _______ _______ _____ _____    ______ ____
ROOT
ATOM      1  O   HOH     1     -23.445  -1.420  14.447  0.00  0.00    +0.000 OA
ENDROOT
TORSDOF 0
REMARK  Name = ../refined-set-2016/2p15/2p15_pocket.pdb
REMARK  283 active torsions:
REMARK  status: ('A' for Active; 'I' for Inactive)
REMARK    1  A    between atoms: _1  and  _3
REMARK    2  A    between atoms: _3  and  _4
REMARK    3  A    between atoms: _3  and  _6
REMARK    4  A    between atoms: _6  and  _7
REMARK    5  A    between atoms: _10  and  _12
REMARK    6  A    between atoms: _12  and  _13
REMARK    7  A    between atoms: _12  and  _15
REMARK    8  A    between atoms: _15  and  _16
REMARK    9  A    between atoms: _19  and  _21
REMARK   10  A    between atoms: _21  and  _22
REMARK   11  A    between atoms: _21  and  _24
REMARK   12  A    between atoms: _24  and  _25
REMARK   13  A    between atoms: _31  and  _33
REMARK   14  A    between atoms: _33  and  _34
REMARK   15  A    between atoms: _33  and  _36
REMARK   16  A    between atoms: _36  and  _37
REMARK   17  A    between atoms: _39  and  _41
REMARK   18  A    between atoms: _41  and  _42
REMARK   19  A    between atoms: _41  and  _44
REMARK   20  A    between atoms: _44  and  _45
REMARK   21  A    between atoms: _45  and  _46
REMARK   22  A    between atoms: _49  and  _51
REMARK   23  A    between atoms: _51  and  _52
REMARK   24  A    between atoms: _51  and  _54
REMARK   25  A    between atoms: _54  and  _55
REMARK   26  A    between atoms: _55  and  _56
REMARK   27  A    between atoms: _58  and  _60
REMARK   28  A    between atoms: _60  and  _61
REMARK   29  A    between atoms: _60  and  _63
REMARK   30  A    between atoms: _63  and  _64
REMARK   31  A    between atoms: _64  and  _65
REMARK   32  A    between atoms: _67  and  _69
REMARK   33  A    between atoms: _69  and  _70
REMARK   34  A    between atoms: _69  and  _72
REMARK   35  A    between atoms: _72  and  _73
REMARK   36  A    between atoms: _76  and  _78
REMARK   37  A    between atoms: _78  and  _79
REMARK   38  A    between atoms: _78  and  _81
REMARK   39  A    between atoms: _81  and  _82
REMARK   40  A    between atoms: _85  and  _87
REMARK   41  A    between atoms: _87  and  _88
REMARK   42  A    between atoms: _87  and  _90
REMARK   43  A    between atoms: _90  and  _91
REMARK   44  A    between atoms: _94  and  _96
REMARK   45  A    between atoms: _96  and  _97
REMARK   46  A    between atoms: _96  and  _99
REMARK   47  A    between atoms: _99  and  _100
REMARK   48  A    between atoms: _105  and  _107
REMARK   49  A    between atoms: _107  and  _108
REMARK   50  A    between atoms: _107  and  _110
REMARK   51  A    between atoms: _110  and  _111
REMARK   52  A    between atoms: _114  and  _116
REMARK   53  A    between atoms: _116  and  _117
REMARK   54  A    between atoms: _120  and  _122
REMARK   55  A    between atoms: _122  and  _123
REMARK   56  A    between atoms: _122  and  _125
REMARK   57  A    between atoms: _125  and  _126
REMARK   58  A    between atoms: _129  and  _131
REMARK   59  A    between atoms: _131  and  _132
REMARK   60  A    between atoms: _131  and  _134
REMARK   61  A    between atoms: _134  and  _135
REMARK   62  A    between atoms: _135  and  _136
REMARK   63  A    between atoms: _136  and  _137
REMARK   64  A    between atoms: _146  and  _148
REMARK   65  A    between atoms: _148  and  _149
REMARK   66  A    between atoms: _148  and  _151
REMARK   67  A    between atoms: _151  and  _152
REMARK   68  A    between atoms: _152  and  _153
REMARK   69  A    between atoms: _156  and  _158
REMARK   70  A    between atoms: _158  and  _159
REMARK   71  A    between atoms: _158  and  _161
REMARK   72  A    between atoms: _161  and  _162
REMARK   73  A    between atoms: _165  and  _167
REMARK   74  A    between atoms: _167  and  _168
REMARK   75  A    between atoms: _167  and  _170
REMARK   76  A    between atoms: _170  and  _171
REMARK   77  A    between atoms: _171  and  _172
REMARK   78  A    between atoms: _174  and  _176
REMARK   79  A    between atoms: _176  and  _177
REMARK   80  A    between atoms: _176  and  _179
REMARK   81  A    between atoms: _179  and  _180
REMARK   82  A    between atoms: _190  and  _192
REMARK   83  A    between atoms: _192  and  _193
REMARK   84  A    between atoms: _192  and  _195
REMARK   85  A    between atoms: _195  and  _196
REMARK   86  A    between atoms: _199  and  _201
REMARK   87  A    between atoms: _201  and  _202
REMARK   88  A    between atoms: _201  and  _204
REMARK   89  A    between atoms: _204  and  _205
REMARK   90  A    between atoms: _205  and  _206
REMARK   91  A    between atoms: _209  and  _211
REMARK   92  A    between atoms: _211  and  _212
REMARK   93  A    between atoms: _211  and  _214
REMARK   94  A    between atoms: _214  and  _215
REMARK   95  A    between atoms: _218  and  _220
REMARK   96  A    between atoms: _220  and  _221
REMARK   97  A    between atoms: _220  and  _223
REMARK   98  A    between atoms: _223  and  _224
REMARK   99  A    between atoms: _227  and  _229
REMARK  100  A    between atoms: _229  and  _230
REMARK  101  A    between atoms: _229  and  _232
REMARK  102  A    between atoms: _232  and  _233
REMARK  103  A    between atoms: _233  and  _234
REMARK  104  A    between atoms: _236  and  _238
REMARK  105  A    between atoms: _238  and  _239
REMARK  106  A    between atoms: _238  and  _241
REMARK  107  A    between atoms: _241  and  _242
REMARK  108  A    between atoms: _245  and  _247
REMARK  109  A    between atoms: _247  and  _248
REMARK  110  A    between atoms: _250  and  _252
REMARK  111  A    between atoms: _252  and  _253
REMARK  112  A    between atoms: _252  and  _255
REMARK  113  A    between atoms: _255  and  _256
REMARK  114  A    between atoms: _259  and  _261
REMARK  115  A    between atoms: _261  and  _262
REMARK  116  A    between atoms: _261  and  _264
REMARK  117  A    between atoms: _267  and  _269
REMARK  118  A    between atoms: _269  and  _270
REMARK  119  A    between atoms: _269  and  _272
REMARK  120  A    between atoms: _272  and  _273
REMARK  121  A    between atoms: _273  and  _274
REMARK  122  A    between atoms: _274  and  _275
REMARK  123  A    between atoms: _284  and  _286
REMARK  124  A    between atoms: _286  and  _287
REMARK  125  A    between atoms: _286  and  _289
REMARK  126  A    between atoms: _289  and  _290
REMARK  127  A    between atoms: _293  and  _295
REMARK  128  A    between atoms: _295  and  _296
REMARK  129  A    between atoms: _295  and  _298
REMARK  130  A    between atoms: _298  and  _299
REMARK  131  A    between atoms: _302  and  _304
REMARK  132  A    between atoms: _304  and  _305
REMARK  133  A    between atoms: _304  and  _307
REMARK  134  A    between atoms: _307  and  _308
REMARK  135  A    between atoms: _314  and  _316
REMARK  136  A    between atoms: _316  and  _317
REMARK  137  A    between atoms: _320  and  _322
REMARK  138  A    between atoms: _322  and  _323
REMARK  139  A    between atoms: _322  and  _325
REMARK  140  A    between atoms: _325  and  _326
REMARK  141  A    between atoms: _329  and  _331
REMARK  142  A    between atoms: _331  and  _332
REMARK  143  A    between atoms: _331  and  _334
REMARK  144  A    between atoms: _334  and  _335
REMARK  145  A    between atoms: _338  and  _340
REMARK  146  A    between atoms: _340  and  _341
REMARK  147  A    between atoms: _340  and  _343
REMARK  148  A    between atoms: _343  and  _344
REMARK  149  A    between atoms: _347  and  _349
REMARK  150  A    between atoms: _349  and  _350
REMARK  151  A    between atoms: _349  and  _352
REMARK  152  A    between atoms: _352  and  _353
REMARK  153  A    between atoms: _353  and  _354
REMARK  154  A    between atoms: _359  and  _361
REMARK  155  A    between atoms: _361  and  _362
REMARK  156  A    between atoms: _361  and  _364
REMARK  157  A    between atoms: _364  and  _365
REMARK  158  A    between atoms: _365  and  _366
REMARK  159  A    between atoms: _366  and  _367
REMARK  160  A    between atoms: _367  and  _368
REMARK  161  A    between atoms: _372  and  _374
REMARK  162  A    between atoms: _374  and  _375
REMARK  163  A    between atoms: _374  and  _377
REMARK  164  A    between atoms: _379  and  _381
REMARK  165  A    between atoms: _381  and  _382
REMARK  166  A    between atoms: _381  and  _384
REMARK  167  A    between atoms: _387  and  _389
REMARK  168  A    between atoms: _389  and  _390
REMARK  169  A    between atoms: _389  and  _392
REMARK  170  A    between atoms: _392  and  _393
REMARK  171  A    between atoms: _393  and  _394
REMARK  172  A    between atoms: _397  and  _399
REMARK  173  A    between atoms: _399  and  _400
REMARK  174  A    between atoms: _402  and  _404
REMARK  175  A    between atoms: _404  and  _405
REMARK  176  A    between atoms: _404  and  _407
REMARK  177  A    between atoms: _407  and  _408
REMARK  178  A    between atoms: _408  and  _409
REMARK  179  A    between atoms: _411  and  _413
REMARK  180  A    between atoms: _413  and  _414
REMARK  181  A    between atoms: _413  and  _416
REMARK  182  A    between atoms: _419  and  _421
REMARK  183  A    between atoms: _421  and  _422
REMARK  184  A    between atoms: _421  and  _424
REMARK  185  A    between atoms: _424  and  _425
REMARK  186  A    between atoms: _425  and  _426
REMARK  187  A    between atoms: _429  and  _431
REMARK  188  A    between atoms: _431  and  _432
REMARK  189  A    between atoms: _431  and  _434
REMARK  190  A    between atoms: _434  and  _435
REMARK  191  A    between atoms: _438  and  _440
REMARK  192  A    between atoms: _440  and  _441
REMARK  193  A    between atoms: _440  and  _443
REMARK  194  A    between atoms: _443  and  _444
REMARK  195  A    between atoms: _450  and  _452
REMARK  196  A    between atoms: _452  and  _453
REMARK  197  A    between atoms: _452  and  _455
REMARK  198  A    between atoms: _455  and  _456
REMARK  199  A    between atoms: _459  and  _461
REMARK  200  A    between atoms: _461  and  _462
REMARK  201  A    between atoms: _461  and  _464
REMARK  202  A    between atoms: _464  and  _465
REMARK  203  A    between atoms: _465  and  _466
REMARK  204  A    between atoms: _468  and  _470
REMARK  205  A    between atoms: _470  and  _471
REMARK  206  A    between atoms: _470  and  _473
REMARK  207  A    between atoms: _473  and  _474
REMARK  208  A    between atoms: _477  and  _479
REMARK  209  A    between atoms: _479  and  _480
REMARK  210  A    between atoms: _479  and  _482
REMARK  211  A    between atoms: _482  and  _483
REMARK  212  A    between atoms: _486  and  _488
REMARK  213  A    between atoms: _488  and  _489
REMARK  214  A    between atoms: _488  and  _491
REMARK  215  A    between atoms: _491  and  _492
REMARK  216  A    between atoms: _492  and  _493
REMARK  217  A    between atoms: _495  and  _497
REMARK  218  A    between atoms: _497  and  _498
REMARK  219  A    between atoms: _497  and  _500
REMARK  220  A    between atoms: _500  and  _501
REMARK  221  A    between atoms: _503  and  _505
REMARK  222  A    between atoms: _505  and  _506
REMARK  223  A    between atoms: _505  and  _508
REMARK  224  A    between atoms: _508  and  _509
REMARK  225  A    between atoms: _509  and  _510
REMARK  226  A    between atoms: _510  and  _511
REMARK  227  A    between atoms: _511  and  _512
REMARK  228  A    between atoms: _516  and  _518
REMARK  229  A    between atoms: _518  and  _519
REMARK  230  A    between atoms: _521  and  _523
REMARK  231  A    between atoms: _523  and  _524
REMARK  232  A    between atoms: _523  and  _526
REMARK  233  A    between atoms: _526  and  _527
REMARK  234  A    between atoms: _527  and  _528
REMARK  235  A    between atoms: _530  and  _532
REMARK  236  A    between atoms: _532  and  _533
REMARK  237  A    between atoms: _532  and  _535
REMARK  238  A    between atoms: _535  and  _536
REMARK  239  A    between atoms: _536  and  _537
REMARK  240  A    between atoms: _540  and  _542
REMARK  241  A    between atoms: _542  and  _543
REMARK  242  A    between atoms: _542  and  _545
REMARK  243  A    between atoms: _545  and  _546
REMARK  244  A    between atoms: _551  and  _553
REMARK  245  A    between atoms: _553  and  _554
REMARK  246  A    between atoms: _553  and  _556
REMARK  247  A    between atoms: _556  and  _557
REMARK  248  A    between atoms: _560  and  _562
REMARK  249  A    between atoms: _562  and  _563
REMARK  250  A    between atoms: _562  and  _565
REMARK  251  A    between atoms: _565  and  _566
REMARK  252  A    between atoms: _571  and  _572
REMARK  253  A    between atoms: _574  and  _576
REMARK  254  A    between atoms: _576  and  _577
REMARK  255  A    between atoms: _576  and  _579
REMARK  256  A    between atoms: _579  and  _580
REMARK  257  A    between atoms: _582  and  _584
REMARK  258  A    between atoms: _584  and  _585
REMARK  259  A    between atoms: _584  and  _587
REMARK  260  A    between atoms: _587  and  _588
REMARK  261  A    between atoms: _588  and  _589
REMARK  262  A    between atoms: _591  and  _593
REMARK  263  A    between atoms: _593  and  _594
REMARK  264  A    between atoms: _593  and  _596
REMARK  265  A    between atoms: _596  and  _597
REMARK  266  A    between atoms: _597  and  _598
REMARK  267  A    between atoms: _598  and  _599
REMARK  268  A    between atoms: _599  and  _600
REMARK  269  A    between atoms: _604  and  _606
REMARK  270  A    between atoms: _606  and  _607
REMARK  271  A    between atoms: _606  and  _609
REMARK  272  A    between atoms: _612  and  _614
REMARK  273  A    between atoms: _614  and  _615
REMARK  274  A    between atoms: _614  and  _617
REMARK  275  A    between atoms: _617  and  _618
REMARK  276  A    between atoms: _621  and  _623
REMARK  277  A    between atoms: _623  and  _624
REMARK  278  A    between atoms: _623  and  _626
REMARK  279  A    between atoms: _626  and  _627
REMARK  280  A    between atoms: _630  and  _632
REMARK  281  A    between atoms: _632  and  _633
REMARK  282  A    between atoms: _632  and  _635
REMARK  283  A    between atoms: _635  and  _636
REMARK                            x       y       z     vdW  Elec       q    Type
REMARK                         _______ _______ _______ _____ _____    ______ ____
ROOT
ATOM      1  O   HOH     1     -43.838   4.798  27.470  0.00  0.00    +0.000 OA
ENDROOT
TORSDOF 0
REMARK  Name = ../refined-set-2016/2p15/2p15_pocket.pdb
REMARK  283 active torsions:
REMARK  status: ('A' for Active; 'I' for Inactive)
REMARK    1  A    between atoms: _1  and  _3
REMARK    2  A    between atoms: _3  and  _4
REMARK    3  A    between atoms: _3  and  _6
REMARK    4  A    between atoms: _6  and  _7
REMARK    5  A    between atoms: _10  and  _12
REMARK    6  A    between atoms: _12  and  _13
REMARK    7  A    between atoms: _12  and  _15
REMARK    8  A    between atoms: _15  and  _16
REMARK    9  A    between atoms: _19  and  _21
REMARK   10  A    between atoms: _21  and  _22
REMARK   11  A    between atoms: _21  and  _24
REMARK   12  A    between atoms: _24  and  _25
REMARK   13  A    between atoms: _31  and  _33
REMARK   14  A    between atoms: _33  and  _34
REMARK   15  A    between atoms: _33  and  _36
REMARK   16  A    between atoms: _36  and  _37
REMARK   17  A    between atoms: _39  and  _41
REMARK   18  A    between atoms: _41  and  _42
REMARK   19  A    between atoms: _41  and  _44
REMARK   20  A    between atoms: _44  and  _45
REMARK   21  A    between atoms: _45  and  _46
REMARK   22  A    between atoms: _49  and  _51
REMARK   23  A    between atoms: _51  and  _52
REMARK   24  A    between atoms: _51  and  _54
REMARK   25  A    between atoms: _54  and  _55
REMARK   26  A    between atoms: _55  and  _56
REMARK   27  A    between atoms: _58  and  _60
REMARK   28  A    between atoms: _60  and  _61
REMARK   29  A    between atoms: _60  and  _63
REMARK   30  A    between atoms: _63  and  _64
REMARK   31  A    between atoms: _64  and  _65
REMARK   32  A    between atoms: _67  and  _69
REMARK   33  A    between atoms: _69  and  _70
REMARK   34  A    between atoms: _69  and  _72
REMARK   35  A    between atoms: _72  and  _73
REMARK   36  A    between atoms: _76  and  _78
REMARK   37  A    between atoms: _78  and  _79
REMARK   38  A    between atoms: _78  and  _81
REMARK   39  A    between atoms: _81  and  _82
REMARK   40  A    between atoms: _85  and  _87
REMARK   41  A    between atoms: _87  and  _88
REMARK   42  A    between atoms: _87  and  _90
REMARK   43  A    between atoms: _90  and  _91
REMARK   44  A    between atoms: _94  and  _96
REMARK   45  A    between atoms: _96  and  _97
REMARK   46  A    between atoms: _96  and  _99
REMARK   47  A    between atoms: _99  and  _100
REMARK   48  A    between atoms: _105  and  _107
REMARK   49  A    between atoms: _107  and  _108
REMARK   50  A    between atoms: _107  and  _110
REMARK   51  A    between atoms: _110  and  _111
REMARK   52  A    between atoms: _114  and  _116
REMARK   53  A    between atoms: _116  and  _117
REMARK   54  A    between atoms: _120  and  _122
REMARK   55  A    between atoms: _122  and  _123
REMARK   56  A    between atoms: _122  and  _125
REMARK   57  A    between atoms: _125  and  _126
REMARK   58  A    between atoms: _129  and  _131
REMARK   59  A    between atoms: _131  and  _132
REMARK   60  A    between atoms: _131  and  _134
REMARK   61  A    between atoms: _134  and  _135
REMARK   62  A    between atoms: _135  and  _136
REMARK   63  A    between atoms: _136  and  _137
REMARK   64  A    between atoms: _146  and  _148
REMARK   65  A    between atoms: _148  and  _149
REMARK   66  A    between atoms: _148  and  _151
REMARK   67  A    between atoms: _151  and  _152
REMARK   68  A    between atoms: _152  and  _153
REMARK   69  A    between atoms: _156  and  _158
REMARK   70  A    between atoms: _158  and  _159
REMARK   71  A    between atoms: _158  and  _161
REMARK   72  A    between atoms: _161  and  _162
REMARK   73  A    between atoms: _165  and  _167
REMARK   74  A    between atoms: _167  and  _168
REMARK   75  A    between atoms: _167  and  _170
REMARK   76  A    between atoms: _170  and  _171
REMARK   77  A    between atoms: _171  and  _172
REMARK   78  A    between atoms: _174  and  _176
REMARK   79  A    between atoms: _176  and  _177
REMARK   80  A    between atoms: _176  and  _179
REMARK   81  A    between atoms: _179  and  _180
REMARK   82  A    between atoms: _190  and  _192
REMARK   83  A    between atoms: _192  and  _193
REMARK   84  A    between atoms: _192  and  _195
REMARK   85  A    between atoms: _195  and  _196
REMARK   86  A    between atoms: _199  and  _201
REMARK   87  A    between atoms: _201  and  _202
REMARK   88  A    between atoms: _201  and  _204
REMARK   89  A    between atoms: _204  and  _205
REMARK   90  A    between atoms: _205  and  _206
REMARK   91  A    between atoms: _209  and  _211
REMARK   92  A    between atoms: _211  and  _212
REMARK   93  A    between atoms: _211  and  _214
REMARK   94  A    between atoms: _214  and  _215
REMARK   95  A    between atoms: _218  and  _220
REMARK   96  A    between atoms: _220  and  _221
REMARK   97  A    between atoms: _220  and  _223
REMARK   98  A    between atoms: _223  and  _224
REMARK   99  A    between atoms: _227  and  _229
REMARK  100  A    between atoms: _229  and  _230
REMARK  101  A    between atoms: _229  and  _232
REMARK  102  A    between atoms: _232  and  _233
REMARK  103  A    between atoms: _233  and  _234
REMARK  104  A    between atoms: _236  and  _238
REMARK  105  A    between atoms: _238  and  _239
REMARK  106  A    between atoms: _238  and  _241
REMARK  107  A    between atoms: _241  and  _242
REMARK  108  A    between atoms: _245  and  _247
REMARK  109  A    between atoms: _247  and  _248
REMARK  110  A    between atoms: _250  and  _252
REMARK  111  A    between atoms: _252  and  _253
REMARK  112  A    between atoms: _252  and  _255
REMARK  113  A    between atoms: _255  and  _256
REMARK  114  A    between atoms: _259  and  _261
REMARK  115  A    between atoms: _261  and  _262
REMARK  116  A    between atoms: _261  and  _264
REMARK  117  A    between atoms: _267  and  _269
REMARK  118  A    between atoms: _269  and  _270
REMARK  119  A    between atoms: _269  and  _272
REMARK  120  A    between atoms: _272  and  _273
REMARK  121  A    between atoms: _273  and  _274
REMARK  122  A    between atoms: _274  and  _275
REMARK  123  A    between atoms: _284  and  _286
REMARK  124  A    between atoms: _286  and  _287
REMARK  125  A    between atoms: _286  and  _289
REMARK  126  A    between atoms: _289  and  _290
REMARK  127  A    between atoms: _293  and  _295
REMARK  128  A    between atoms: _295  and  _296
REMARK  129  A    between atoms: _295  and  _298
REMARK  130  A    between atoms: _298  and  _299
REMARK  131  A    between atoms: _302  and  _304
REMARK  132  A    between atoms: _304  and  _305
REMARK  133  A    between atoms: _304  and  _307
REMARK  134  A    between atoms: _307  and  _308
REMARK  135  A    between atoms: _314  and  _316
REMARK  136  A    between atoms: _316  and  _317
REMARK  137  A    between atoms: _320  and  _322
REMARK  138  A    between atoms: _322  and  _323
REMARK  139  A    between atoms: _322  and  _325
REMARK  140  A    between atoms: _325  and  _326
REMARK  141  A    between atoms: _329  and  _331
REMARK  142  A    between atoms: _331  and  _332
REMARK  143  A    between atoms: _331  and  _334
REMARK  144  A    between atoms: _334  and  _335
REMARK  145  A    between atoms: _338  and  _340
REMARK  146  A    between atoms: _340  and  _341
REMARK  147  A    between atoms: _340  and  _343
REMARK  148  A    between atoms: _343  and  _344
REMARK  149  A    between atoms: _347  and  _349
REMARK  150  A    between atoms: _349  and  _350
REMARK  151  A    between atoms: _349  and  _352
REMARK  152  A    between atoms: _352  and  _353
REMARK  153  A    between atoms: _353  and  _354
REMARK  154  A    between atoms: _359  and  _361
REMARK  155  A    between atoms: _361  and  _362
REMARK  156  A    between atoms: _361  and  _364
REMARK  157  A    between atoms: _364  and  _365
REMARK  158  A    between atoms: _365  and  _366
REMARK  159  A    between atoms: _366  and  _367
REMARK  160  A    between atoms: _367  and  _368
REMARK  161  A    between atoms: _372  and  _374
REMARK  162  A    between atoms: _374  and  _375
REMARK  163  A    between atoms: _374  and  _377
REMARK  164  A    between atoms: _379  and  _381
REMARK  165  A    between atoms: _381  and  _382
REMARK  166  A    between atoms: _381  and  _384
REMARK  167  A    between atoms: _387  and  _389
REMARK  168  A    between atoms: _389  and  _390
REMARK  169  A    between atoms: _389  and  _392
REMARK  170  A    between atoms: _392  and  _393
REMARK  171  A    between atoms: _393  and  _394
REMARK  172  A    between atoms: _397  and  _399
REMARK  173  A    between atoms: _399  and  _400
REMARK  174  A    between atoms: _402  and  _404
REMARK  175  A    between atoms: _404  and  _405
REMARK  176  A    between atoms: _404  and  _407
REMARK  177  A    between atoms: _407  and  _408
REMARK  178  A    between atoms: _408  and  _409
REMARK  179  A    between atoms: _411  and  _413
REMARK  180  A    between atoms: _413  and  _414
REMARK  181  A    between atoms: _413  and  _416
REMARK  182  A    between atoms: _419  and  _421
REMARK  183  A    between atoms: _421  and  _422
REMARK  184  A    between atoms: _421  and  _424
REMARK  185  A    between atoms: _424  and  _425
REMARK  186  A    between atoms: _425  and  _426
REMARK  187  A    between atoms: _429  and  _431
REMARK  188  A    between atoms: _431  and  _432
REMARK  189  A    between atoms: _431  and  _434
REMARK  190  A    between atoms: _434  and  _435
REMARK  191  A    between atoms: _438  and  _440
REMARK  192  A    between atoms: _440  and  _441
REMARK  193  A    between atoms: _440  and  _443
REMARK  194  A    between atoms: _443  and  _444
REMARK  195  A    between atoms: _450  and  _452
REMARK  196  A    between atoms: _452  and  _453
REMARK  197  A    between atoms: _452  and  _455
REMARK  198  A    between atoms: _455  and  _456
REMARK  199  A    between atoms: _459  and  _461
REMARK  200  A    between atoms: _461  and  _462
REMARK  201  A    between atoms: _461  and  _464
REMARK  202  A    between atoms: _464  and  _465
REMARK  203  A    between atoms: _465  and  _466
REMARK  204  A    between atoms: _468  and  _470
REMARK  205  A    between atoms: _470  and  _471
REMARK  206  A    between atoms: _470  and  _473
REMARK  207  A    between atoms: _473  and  _474
REMARK  208  A    between atoms: _477  and  _479
REMARK  209  A    between atoms: _479  and  _480
REMARK  210  A    between atoms: _479  and  _482
REMARK  211  A    between atoms: _482  and  _483
REMARK  212  A    between atoms: _486  and  _488
REMARK  213  A    between atoms: _488  and  _489
REMARK  214  A    between atoms: _488  and  _491
REMARK  215  A    between atoms: _491  and  _492
REMARK  216  A    between atoms: _492  and  _493
REMARK  217  A    between atoms: _495  and  _497
REMARK  218  A    between atoms: _497  and  _498
REMARK  219  A    between atoms: _497  and  _500
REMARK  220  A    between atoms: _500  and  _501
REMARK  221  A    between atoms: _503  and  _505
REMARK  222  A    between atoms: _505  and  _506
REMARK  223  A    between atoms: _505  and  _508
REMARK  224  A    between atoms: _508  and  _509
REMARK  225  A    between atoms: _509  and  _510
REMARK  226  A    between atoms: _510  and  _511
REMARK  227  A    between atoms: _511  and  _512
REMARK  228  A    between atoms: _516  and  _518
REMARK  229  A    between atoms: _518  and  _519
REMARK  230  A    between atoms: _521  and  _523
REMARK  231  A    between atoms: _523  and  _524
REMARK  232  A    between atoms: _523  and  _526
REMARK  233  A    between atoms: _526  and  _527
REMARK  234  A    between atoms: _527  and  _528
REMARK  235  A    between atoms: _530  and  _532
REMARK  236  A    between atoms: _532  and  _533
REMARK  237  A    between atoms: _532  and  _535
REMARK  238  A    between atoms: _535  and  _536
REMARK  239  A    between atoms: _536  and  _537
REMARK  240  A    between atoms: _540  and  _542
REMARK  241  A    between atoms: _542  and  _543
REMARK  242  A    between atoms: _542  and  _545
REMARK  243  A    between atoms: _545  and  _546
REMARK  244  A    between atoms: _551  and  _553
REMARK  245  A    between atoms: _553  and  _554
REMARK  246  A    between atoms: _553  and  _556
REMARK  247  A    between atoms: _556  and  _557
REMARK  248  A    between atoms: _560  and  _562
REMARK  249  A    between atoms: _562  and  _563
REMARK  250  A    between atoms: _562  and  _565
REMARK  251  A    between atoms: _565  and  _566
REMARK  252  A    between atoms: _571  and  _572
REMARK  253  A    between atoms: _574  and  _576
REMARK  254  A    between atoms: _576  and  _577
REMARK  255  A    between atoms: _576  and  _579
REMARK  256  A    between atoms: _579  and  _580
REMARK  257  A    between atoms: _582  and  _584
REMARK  258  A    between atoms: _584  and  _585
REMARK  259  A    between atoms: _584  and  _587
REMARK  260  A    between atoms: _587  and  _588
REMARK  261  A    between atoms: _588  and  _589
REMARK  262  A    between atoms: _591  and  _593
REMARK  263  A    between atoms: _593  and  _594
REMARK  264  A    between atoms: _593  and  _596
REMARK  265  A    between atoms: _596  and  _597
REMARK  266  A    between atoms: _597  and  _598
REMARK  267  A    between atoms: _598  and  _599
REMARK  268  A    between atoms: _599  and  _600
REMARK  269  A    between atoms: _604  and  _606
REMARK  270  A    between atoms: _606  and  _607
REMARK  271  A    between atoms: _606  and  _609
REMARK  272  A    between atoms: _612  and  _614
REMARK  273  A    between atoms: _614  and  _615
REMARK  274  A    between atoms: _614  and  _617
REMARK  275  A    between atoms: _617  and  _618
REMARK  276  A    between atoms: _621  and  _623
REMARK  277  A    between atoms: _623  and  _624
REMARK  278  A    between atoms: _623  and  _626
REMARK  279  A    between atoms: _626  and  _627
REMARK  280  A    between atoms: _630  and  _632
REMARK  281  A    between atoms: _632  and  _633
REMARK  282  A    between atoms: _632  and  _635
REMARK  283  A    between atoms: _635  and  _636
REMARK                            x       y       z     vdW  Elec       q    Type
REMARK                         _______ _______ _______ _____ _____    ______ ____
ROOT
ATOM      1  O   HOH     1     -21.658   3.311  18.891  0.00  0.00    +0.000 OA
ENDROOT
TORSDOF 0
REMARK  Name = ../refined-set-2016/2p15/2p15_pocket.pdb
REMARK  283 active torsions:
REMARK  status: ('A' for Active; 'I' for Inactive)
REMARK    1  A    between atoms: _1  and  _3
REMARK    2  A    between atoms: _3  and  _4
REMARK    3  A    between atoms: _3  and  _6
REMARK    4  A    between atoms: _6  and  _7
REMARK    5  A    between atoms: _10  and  _12
REMARK    6  A    between atoms: _12  and  _13
REMARK    7  A    between atoms: _12  and  _15
REMARK    8  A    between atoms: _15  and  _16
REMARK    9  A    between atoms: _19  and  _21
REMARK   10  A    between atoms: _21  and  _22
REMARK   11  A    between atoms: _21  and  _24
REMARK   12  A    between atoms: _24  and  _25
REMARK   13  A    between atoms: _31  and  _33
REMARK   14  A    between atoms: _33  and  _34
REMARK   15  A    between atoms: _33  and  _36
REMARK   16  A    between atoms: _36  and  _37
REMARK   17  A    between atoms: _39  and  _41
REMARK   18  A    between atoms: _41  and  _42
REMARK   19  A    between atoms: _41  and  _44
REMARK   20  A    between atoms: _44  and  _45
REMARK   21  A    between atoms: _45  and  _46
REMARK   22  A    between atoms: _49  and  _51
REMARK   23  A    between atoms: _51  and  _52
REMARK   24  A    between atoms: _51  and  _54
REMARK   25  A    between atoms: _54  and  _55
REMARK   26  A    between atoms: _55  and  _56
REMARK   27  A    between atoms: _58  and  _60
REMARK   28  A    between atoms: _60  and  _61
REMARK   29  A    between atoms: _60  and  _63
REMARK   30  A    between atoms: _63  and  _64
REMARK   31  A    between atoms: _64  and  _65
REMARK   32  A    between atoms: _67  and  _69
REMARK   33  A    between atoms: _69  and  _70
REMARK   34  A    between atoms: _69  and  _72
REMARK   35  A    between atoms: _72  and  _73
REMARK   36  A    between atoms: _76  and  _78
REMARK   37  A    between atoms: _78  and  _79
REMARK   38  A    between atoms: _78  and  _81
REMARK   39  A    between atoms: _81  and  _82
REMARK   40  A    between atoms: _85  and  _87
REMARK   41  A    between atoms: _87  and  _88
REMARK   42  A    between atoms: _87  and  _90
REMARK   43  A    between atoms: _90  and  _91
REMARK   44  A    between atoms: _94  and  _96
REMARK   45  A    between atoms: _96  and  _97
REMARK   46  A    between atoms: _96  and  _99
REMARK   47  A    between atoms: _99  and  _100
REMARK   48  A    between atoms: _105  and  _107
REMARK   49  A    between atoms: _107  and  _108
REMARK   50  A    between atoms: _107  and  _110
REMARK   51  A    between atoms: _110  and  _111
REMARK   52  A    between atoms: _114  and  _116
REMARK   53  A    between atoms: _116  and  _117
REMARK   54  A    between atoms: _120  and  _122
REMARK   55  A    between atoms: _122  and  _123
REMARK   56  A    between atoms: _122  and  _125
REMARK   57  A    between atoms: _125  and  _126
REMARK   58  A    between atoms: _129  and  _131
REMARK   59  A    between atoms: _131  and  _132
REMARK   60  A    between atoms: _131  and  _134
REMARK   61  A    between atoms: _134  and  _135
REMARK   62  A    between atoms: _135  and  _136
REMARK   63  A    between atoms: _136  and  _137
REMARK   64  A    between atoms: _146  and  _148
REMARK   65  A    between atoms: _148  and  _149
REMARK   66  A    between atoms: _148  and  _151
REMARK   67  A    between atoms: _151  and  _152
REMARK   68  A    between atoms: _152  and  _153
REMARK   69  A    between atoms: _156  and  _158
REMARK   70  A    between atoms: _158  and  _159
REMARK   71  A    between atoms: _158  and  _161
REMARK   72  A    between atoms: _161  and  _162
REMARK   73  A    between atoms: _165  and  _167
REMARK   74  A    between atoms: _167  and  _168
REMARK   75  A    between atoms: _167  and  _170
REMARK   76  A    between atoms: _170  and  _171
REMARK   77  A    between atoms: _171  and  _172
REMARK   78  A    between atoms: _174  and  _176
REMARK   79  A    between atoms: _176  and  _177
REMARK   80  A    between atoms: _176  and  _179
REMARK   81  A    between atoms: _179  and  _180
REMARK   82  A    between atoms: _190  and  _192
REMARK   83  A    between atoms: _192  and  _193
REMARK   84  A    between atoms: _192  and  _195
REMARK   85  A    between atoms: _195  and  _196
REMARK   86  A    between atoms: _199  and  _201
REMARK   87  A    between atoms: _201  and  _202
REMARK   88  A    between atoms: _201  and  _204
REMARK   89  A    between atoms: _204  and  _205
REMARK   90  A    between atoms: _205  and  _206
REMARK   91  A    between atoms: _209  and  _211
REMARK   92  A    between atoms: _211  and  _212
REMARK   93  A    between atoms: _211  and  _214
REMARK   94  A    between atoms: _214  and  _215
REMARK   95  A    between atoms: _218  and  _220
REMARK   96  A    between atoms: _220  and  _221
REMARK   97  A    between atoms: _220  and  _223
REMARK   98  A    between atoms: _223  and  _224
REMARK   99  A    between atoms: _227  and  _229
REMARK  100  A    between atoms: _229  and  _230
REMARK  101  A    between atoms: _229  and  _232
REMARK  102  A    between atoms: _232  and  _233
REMARK  103  A    between atoms: _233  and  _234
REMARK  104  A    between atoms: _236  and  _238
REMARK  105  A    between atoms: _238  and  _239
REMARK  106  A    between atoms: _238  and  _241
REMARK  107  A    between atoms: _241  and  _242
REMARK  108  A    between atoms: _245  and  _247
REMARK  109  A    between atoms: _247  and  _248
REMARK  110  A    between atoms: _250  and  _252
REMARK  111  A    between atoms: _252  and  _253
REMARK  112  A    between atoms: _252  and  _255
REMARK  113  A    between atoms: _255  and  _256
REMARK  114  A    between atoms: _259  and  _261
REMARK  115  A    between atoms: _261  and  _262
REMARK  116  A    between atoms: _261  and  _264
REMARK  117  A    between atoms: _267  and  _269
REMARK  118  A    between atoms: _269  and  _270
REMARK  119  A    between atoms: _269  and  _272
REMARK  120  A    between atoms: _272  and  _273
REMARK  121  A    between atoms: _273  and  _274
REMARK  122  A    between atoms: _274  and  _275
REMARK  123  A    between atoms: _284  and  _286
REMARK  124  A    between atoms: _286  and  _287
REMARK  125  A    between atoms: _286  and  _289
REMARK  126  A    between atoms: _289  and  _290
REMARK  127  A    between atoms: _293  and  _295
REMARK  128  A    between atoms: _295  and  _296
REMARK  129  A    between atoms: _295  and  _298
REMARK  130  A    between atoms: _298  and  _299
REMARK  131  A    between atoms: _302  and  _304
REMARK  132  A    between atoms: _304  and  _305
REMARK  133  A    between atoms: _304  and  _307
REMARK  134  A    between atoms: _307  and  _308
REMARK  135  A    between atoms: _314  and  _316
REMARK  136  A    between atoms: _316  and  _317
REMARK  137  A    between atoms: _320  and  _322
REMARK  138  A    between atoms: _322  and  _323
REMARK  139  A    between atoms: _322  and  _325
REMARK  140  A    between atoms: _325  and  _326
REMARK  141  A    between atoms: _329  and  _331
REMARK  142  A    between atoms: _331  and  _332
REMARK  143  A    between atoms: _331  and  _334
REMARK  144  A    between atoms: _334  and  _335
REMARK  145  A    between atoms: _338  and  _340
REMARK  146  A    between atoms: _340  and  _341
REMARK  147  A    between atoms: _340  and  _343
REMARK  148  A    between atoms: _343  and  _344
REMARK  149  A    between atoms: _347  and  _349
REMARK  150  A    between atoms: _349  and  _350
REMARK  151  A    between atoms: _349  and  _352
REMARK  152  A    between atoms: _352  and  _353
REMARK  153  A    between atoms: _353  and  _354
REMARK  154  A    between atoms: _359  and  _361
REMARK  155  A    between atoms: _361  and  _362
REMARK  156  A    between atoms: _361  and  _364
REMARK  157  A    between atoms: _364  and  _365
REMARK  158  A    between atoms: _365  and  _366
REMARK  159  A    between atoms: _366  and  _367
REMARK  160  A    between atoms: _367  and  _368
REMARK  161  A    between atoms: _372  and  _374
REMARK  162  A    between atoms: _374  and  _375
REMARK  163  A    between atoms: _374  and  _377
REMARK  164  A    between atoms: _379  and  _381
REMARK  165  A    between atoms: _381  and  _382
REMARK  166  A    between atoms: _381  and  _384
REMARK  167  A    between atoms: _387  and  _389
REMARK  168  A    between atoms: _389  and  _390
REMARK  169  A    between atoms: _389  and  _392
REMARK  170  A    between atoms: _392  and  _393
REMARK  171  A    between atoms: _393  and  _394
REMARK  172  A    between atoms: _397  and  _399
REMARK  173  A    between atoms: _399  and  _400
REMARK  174  A    between atoms: _402  and  _404
REMARK  175  A    between atoms: _404  and  _405
REMARK  176  A    between atoms: _404  and  _407
REMARK  177  A    between atoms: _407  and  _408
REMARK  178  A    between atoms: _408  and  _409
REMARK  179  A    between atoms: _411  and  _413
REMARK  180  A    between atoms: _413  and  _414
REMARK  181  A    between atoms: _413  and  _416
REMARK  182  A    between atoms: _419  and  _421
REMARK  183  A    between atoms: _421  and  _422
REMARK  184  A    between atoms: _421  and  _424
REMARK  185  A    between atoms: _424  and  _425
REMARK  186  A    between atoms: _425  and  _426
REMARK  187  A    between atoms: _429  and  _431
REMARK  188  A    between atoms: _431  and  _432
REMARK  189  A    between atoms: _431  and  _434
REMARK  190  A    between atoms: _434  and  _435
REMARK  191  A    between atoms: _438  and  _440
REMARK  192  A    between atoms: _440  and  _441
REMARK  193  A    between atoms: _440  and  _443
REMARK  194  A    between atoms: _443  and  _444
REMARK  195  A    between atoms: _450  and  _452
REMARK  196  A    between atoms: _452  and  _453
REMARK  197  A    between atoms: _452  and  _455
REMARK  198  A    between atoms: _455  and  _456
REMARK  199  A    between atoms: _459  and  _461
REMARK  200  A    between atoms: _461  and  _462
REMARK  201  A    between atoms: _461  and  _464
REMARK  202  A    between atoms: _464  and  _465
REMARK  203  A    between atoms: _465  and  _466
REMARK  204  A    between atoms: _468  and  _470
REMARK  205  A    between atoms: _470  and  _471
REMARK  206  A    between atoms: _470  and  _473
REMARK  207  A    between atoms: _473  and  _474
REMARK  208  A    between atoms: _477  and  _479
REMARK  209  A    between atoms: _479  and  _480
REMARK  210  A    between atoms: _479  and  _482
REMARK  211  A    between atoms: _482  and  _483
REMARK  212  A    between atoms: _486  and  _488
REMARK  213  A    between atoms: _488  and  _489
REMARK  214  A    between atoms: _488  and  _491
REMARK  215  A    between atoms: _491  and  _492
REMARK  216  A    between atoms: _492  and  _493
REMARK  217  A    between atoms: _495  and  _497
REMARK  218  A    between atoms: _497  and  _498
REMARK  219  A    between atoms: _497  and  _500
REMARK  220  A    between atoms: _500  and  _501
REMARK  221  A    between atoms: _503  and  _505
REMARK  222  A    between atoms: _505  and  _506
REMARK  223  A    between atoms: _505  and  _508
REMARK  224  A    between atoms: _508  and  _509
REMARK  225  A    between atoms: _509  and  _510
REMARK  226  A    between atoms: _510  and  _511
REMARK  227  A    between atoms: _511  and  _512
REMARK  228  A    between atoms: _516  and  _518
REMARK  229  A    between atoms: _518  and  _519
REMARK  230  A    between atoms: _521  and  _523
REMARK  231  A    between atoms: _523  and  _524
REMARK  232  A    between atoms: _523  and  _526
REMARK  233  A    between atoms: _526  and  _527
REMARK  234  A    between atoms: _527  and  _528
REMARK  235  A    between atoms: _530  and  _532
REMARK  236  A    between atoms: _532  and  _533
REMARK  237  A    between atoms: _532  and  _535
REMARK  238  A    between atoms: _535  and  _536
REMARK  239  A    between atoms: _536  and  _537
REMARK  240  A    between atoms: _540  and  _542
REMARK  241  A    between atoms: _542  and  _543
REMARK  242  A    between atoms: _542  and  _545
REMARK  243  A    between atoms: _545  and  _546
REMARK  244  A    between atoms: _551  and  _553
REMARK  245  A    between atoms: _553  and  _554
REMARK  246  A    between atoms: _553  and  _556
REMARK  247  A    between atoms: _556  and  _557
REMARK  248  A    between atoms: _560  and  _562
REMARK  249  A    between atoms: _562  and  _563
REMARK  250  A    between atoms: _562  and  _565
REMARK  251  A    between atoms: _565  and  _566
REMARK  252  A    between atoms: _571  and  _572
REMARK  253  A    between atoms: _574  and  _576
REMARK  254  A    between atoms: _576  and  _577
REMARK  255  A    between atoms: _576  and  _579
REMARK  256  A    between atoms: _579  and  _580
REMARK  257  A    between atoms: _582  and  _584
REMARK  258  A    between atoms: _584  and  _585
REMARK  259  A    between atoms: _584  and  _587
REMARK  260  A    between atoms: _587  and  _588
REMARK  261  A    between atoms: _588  and  _589
REMARK  262  A    between atoms: _591  and  _593
REMARK  263  A    between atoms: _593  and  _594
REMARK  264  A    between atoms: _593  and  _596
REMARK  265  A    between atoms: _596  and  _597
REMARK  266  A    between atoms: _597  and  _598
REMARK  267  A    between atoms: _598  and  _599
REMARK  268  A    between atoms: _599  and  _600
REMARK  269  A    between atoms: _604  and  _606
REMARK  270  A    between atoms: _606  and  _607
REMARK  271  A    between atoms: _606  and  _609
REMARK  272  A    between atoms: _612  and  _614
REMARK  273  A    between atoms: _614  and  _615
REMARK  274  A    between atoms: _614  and  _617
REMARK  275  A    between atoms: _617  and  _618
REMARK  276  A    between atoms: _621  and  _623
REMARK  277  A    between atoms: _623  and  _624
REMARK  278  A    between atoms: _623  and  _626
REMARK  279  A    between atoms: _626  and  _627
REMARK  280  A    between atoms: _630  and  _632
REMARK  281  A    between atoms: _632  and  _633
REMARK  282  A    between atoms: _632  and  _635
REMARK  283  A    between atoms: _635  and  _636
REMARK                            x       y       z     vdW  Elec       q    Type
REMARK                         _______ _______ _______ _____ _____    ______ ____
ROOT
ATOM      1  O   HOH     1     -40.759   8.493  27.918  0.00  0.00    +0.000 OA
ENDROOT
TORSDOF 0
REMARK  Name = ../refined-set-2016/2p15/2p15_pocket.pdb
REMARK  283 active torsions:
REMARK  status: ('A' for Active; 'I' for Inactive)
REMARK    1  A    between atoms: _1  and  _3
REMARK    2  A    between atoms: _3  and  _4
REMARK    3  A    between atoms: _3  and  _6
REMARK    4  A    between atoms: _6  and  _7
REMARK    5  A    between atoms: _10  and  _12
REMARK    6  A    between atoms: _12  and  _13
REMARK    7  A    between atoms: _12  and  _15
REMARK    8  A    between atoms: _15  and  _16
REMARK    9  A    between atoms: _19  and  _21
REMARK   10  A    between atoms: _21  and  _22
REMARK   11  A    between atoms: _21  and  _24
REMARK   12  A    between atoms: _24  and  _25
REMARK   13  A    between atoms: _31  and  _33
REMARK   14  A    between atoms: _33  and  _34
REMARK   15  A    between atoms: _33  and  _36
REMARK   16  A    between atoms: _36  and  _37
REMARK   17  A    between atoms: _39  and  _41
REMARK   18  A    between atoms: _41  and  _42
REMARK   19  A    between atoms: _41  and  _44
REMARK   20  A    between atoms: _44  and  _45
REMARK   21  A    between atoms: _45  and  _46
REMARK   22  A    between atoms: _49  and  _51
REMARK   23  A    between atoms: _51  and  _52
REMARK   24  A    between atoms: _51  and  _54
REMARK   25  A    between atoms: _54  and  _55
REMARK   26  A    between atoms: _55  and  _56
REMARK   27  A    between atoms: _58  and  _60
REMARK   28  A    between atoms: _60  and  _61
REMARK   29  A    between atoms: _60  and  _63
REMARK   30  A    between atoms: _63  and  _64
REMARK   31  A    between atoms: _64  and  _65
REMARK   32  A    between atoms: _67  and  _69
REMARK   33  A    between atoms: _69  and  _70
REMARK   34  A    between atoms: _69  and  _72
REMARK   35  A    between atoms: _72  and  _73
REMARK   36  A    between atoms: _76  and  _78
REMARK   37  A    between atoms: _78  and  _79
REMARK   38  A    between atoms: _78  and  _81
REMARK   39  A    between atoms: _81  and  _82
REMARK   40  A    between atoms: _85  and  _87
REMARK   41  A    between atoms: _87  and  _88
REMARK   42  A    between atoms: _87  and  _90
REMARK   43  A    between atoms: _90  and  _91
REMARK   44  A    between atoms: _94  and  _96
REMARK   45  A    between atoms: _96  and  _97
REMARK   46  A    between atoms: _96  and  _99
REMARK   47  A    between atoms: _99  and  _100
REMARK   48  A    between atoms: _105  and  _107
REMARK   49  A    between atoms: _107  and  _108
REMARK   50  A    between atoms: _107  and  _110
REMARK   51  A    between atoms: _110  and  _111
REMARK   52  A    between atoms: _114  and  _116
REMARK   53  A    between atoms: _116  and  _117
REMARK   54  A    between atoms: _120  and  _122
REMARK   55  A    between atoms: _122  and  _123
REMARK   56  A    between atoms: _122  and  _125
REMARK   57  A    between atoms: _125  and  _126
REMARK   58  A    between atoms: _129  and  _131
REMARK   59  A    between atoms: _131  and  _132
REMARK   60  A    between atoms: _131  and  _134
REMARK   61  A    between atoms: _134  and  _135
REMARK   62  A    between atoms: _135  and  _136
REMARK   63  A    between atoms: _136  and  _137
REMARK   64  A    between atoms: _146  and  _148
REMARK   65  A    between atoms: _148  and  _149
REMARK   66  A    between atoms: _148  and  _151
REMARK   67  A    between atoms: _151  and  _152
REMARK   68  A    between atoms: _152  and  _153
REMARK   69  A    between atoms: _156  and  _158
REMARK   70  A    between atoms: _158  and  _159
REMARK   71  A    between atoms: _158  and  _161
REMARK   72  A    between atoms: _161  and  _162
REMARK   73  A    between atoms: _165  and  _167
REMARK   74  A    between atoms: _167  and  _168
REMARK   75  A    between atoms: _167  and  _170
REMARK   76  A    between atoms: _170  and  _171
REMARK   77  A    between atoms: _171  and  _172
REMARK   78  A    between atoms: _174  and  _176
REMARK   79  A    between atoms: _176  and  _177
REMARK   80  A    between atoms: _176  and  _179
REMARK   81  A    between atoms: _179  and  _180
REMARK   82  A    between atoms: _190  and  _192
REMARK   83  A    between atoms: _192  and  _193
REMARK   84  A    between atoms: _192  and  _195
REMARK   85  A    between atoms: _195  and  _196
REMARK   86  A    between atoms: _199  and  _201
REMARK   87  A    between atoms: _201  and  _202
REMARK   88  A    between atoms: _201  and  _204
REMARK   89  A    between atoms: _204  and  _205
REMARK   90  A    between atoms: _205  and  _206
REMARK   91  A    between atoms: _209  and  _211
REMARK   92  A    between atoms: _211  and  _212
REMARK   93  A    between atoms: _211  and  _214
REMARK   94  A    between atoms: _214  and  _215
REMARK   95  A    between atoms: _218  and  _220
REMARK   96  A    between atoms: _220  and  _221
REMARK   97  A    between atoms: _220  and  _223
REMARK   98  A    between atoms: _223  and  _224
REMARK   99  A    between atoms: _227  and  _229
REMARK  100  A    between atoms: _229  and  _230
REMARK  101  A    between atoms: _229  and  _232
REMARK  102  A    between atoms: _232  and  _233
REMARK  103  A    between atoms: _233  and  _234
REMARK  104  A    between atoms: _236  and  _238
REMARK  105  A    between atoms: _238  and  _239
REMARK  106  A    between atoms: _238  and  _241
REMARK  107  A    between atoms: _241  and  _242
REMARK  108  A    between atoms: _245  and  _247
REMARK  109  A    between atoms: _247  and  _248
REMARK  110  A    between atoms: _250  and  _252
REMARK  111  A    between atoms: _252  and  _253
REMARK  112  A    between atoms: _252  and  _255
REMARK  113  A    between atoms: _255  and  _256
REMARK  114  A    between atoms: _259  and  _261
REMARK  115  A    between atoms: _261  and  _262
REMARK  116  A    between atoms: _261  and  _264
REMARK  117  A    between atoms: _267  and  _269
REMARK  118  A    between atoms: _269  and  _270
REMARK  119  A    between atoms: _269  and  _272
REMARK  120  A    between atoms: _272  and  _273
REMARK  121  A    between atoms: _273  and  _274
REMARK  122  A    between atoms: _274  and  _275
REMARK  123  A    between atoms: _284  and  _286
REMARK  124  A    between atoms: _286  and  _287
REMARK  125  A    between atoms: _286  and  _289
REMARK  126  A    between atoms: _289  and  _290
REMARK  127  A    between atoms: _293  and  _295
REMARK  128  A    between atoms: _295  and  _296
REMARK  129  A    between atoms: _295  and  _298
REMARK  130  A    between atoms: _298  and  _299
REMARK  131  A    between atoms: _302  and  _304
REMARK  132  A    between atoms: _304  and  _305
REMARK  133  A    between atoms: _304  and  _307
REMARK  134  A    between atoms: _307  and  _308
REMARK  135  A    between atoms: _314  and  _316
REMARK  136  A    between atoms: _316  and  _317
REMARK  137  A    between atoms: _320  and  _322
REMARK  138  A    between atoms: _322  and  _323
REMARK  139  A    between atoms: _322  and  _325
REMARK  140  A    between atoms: _325  and  _326
REMARK  141  A    between atoms: _329  and  _331
REMARK  142  A    between atoms: _331  and  _332
REMARK  143  A    between atoms: _331  and  _334
REMARK  144  A    between atoms: _334  and  _335
REMARK  145  A    between atoms: _338  and  _340
REMARK  146  A    between atoms: _340  and  _341
REMARK  147  A    between atoms: _340  and  _343
REMARK  148  A    between atoms: _343  and  _344
REMARK  149  A    between atoms: _347  and  _349
REMARK  150  A    between atoms: _349  and  _350
REMARK  151  A    between atoms: _349  and  _352
REMARK  152  A    between atoms: _352  and  _353
REMARK  153  A    between atoms: _353  and  _354
REMARK  154  A    between atoms: _359  and  _361
REMARK  155  A    between atoms: _361  and  _362
REMARK  156  A    between atoms: _361  and  _364
REMARK  157  A    between atoms: _364  and  _365
REMARK  158  A    between atoms: _365  and  _366
REMARK  159  A    between atoms: _366  and  _367
REMARK  160  A    between atoms: _367  and  _368
REMARK  161  A    between atoms: _372  and  _374
REMARK  162  A    between atoms: _374  and  _375
REMARK  163  A    between atoms: _374  and  _377
REMARK  164  A    between atoms: _379  and  _381
REMARK  165  A    between atoms: _381  and  _382
REMARK  166  A    between atoms: _381  and  _384
REMARK  167  A    between atoms: _387  and  _389
REMARK  168  A    between atoms: _389  and  _390
REMARK  169  A    between atoms: _389  and  _392
REMARK  170  A    between atoms: _392  and  _393
REMARK  171  A    between atoms: _393  and  _394
REMARK  172  A    between atoms: _397  and  _399
REMARK  173  A    between atoms: _399  and  _400
REMARK  174  A    between atoms: _402  and  _404
REMARK  175  A    between atoms: _404  and  _405
REMARK  176  A    between atoms: _404  and  _407
REMARK  177  A    between atoms: _407  and  _408
REMARK  178  A    between atoms: _408  and  _409
REMARK  179  A    between atoms: _411  and  _413
REMARK  180  A    between atoms: _413  and  _414
REMARK  181  A    between atoms: _413  and  _416
REMARK  182  A    between atoms: _419  and  _421
REMARK  183  A    between atoms: _421  and  _422
REMARK  184  A    between atoms: _421  and  _424
REMARK  185  A    between atoms: _424  and  _425
REMARK  186  A    between atoms: _425  and  _426
REMARK  187  A    between atoms: _429  and  _431
REMARK  188  A    between atoms: _431  and  _432
REMARK  189  A    between atoms: _431  and  _434
REMARK  190  A    between atoms: _434  and  _435
REMARK  191  A    between atoms: _438  and  _440
REMARK  192  A    between atoms: _440  and  _441
REMARK  193  A    between atoms: _440  and  _443
REMARK  194  A    between atoms: _443  and  _444
REMARK  195  A    between atoms: _450  and  _452
REMARK  196  A    between atoms: _452  and  _453
REMARK  197  A    between atoms: _452  and  _455
REMARK  198  A    between atoms: _455  and  _456
REMARK  199  A    between atoms: _459  and  _461
REMARK  200  A    between atoms: _461  and  _462
REMARK  201  A    between atoms: _461  and  _464
REMARK  202  A    between atoms: _464  and  _465
REMARK  203  A    between atoms: _465  and  _466
REMARK  204  A    between atoms: _468  and  _470
REMARK  205  A    between atoms: _470  and  _471
REMARK  206  A    between atoms: _470  and  _473
REMARK  207  A    between atoms: _473  and  _474
REMARK  208  A    between atoms: _477  and  _479
REMARK  209  A    between atoms: _479  and  _480
REMARK  210  A    between atoms: _479  and  _482
REMARK  211  A    between atoms: _482  and  _483
REMARK  212  A    between atoms: _486  and  _488
REMARK  213  A    between atoms: _488  and  _489
REMARK  214  A    between atoms: _488  and  _491
REMARK  215  A    between atoms: _491  and  _492
REMARK  216  A    between atoms: _492  and  _493
REMARK  217  A    between atoms: _495  and  _497
REMARK  218  A    between atoms: _497  and  _498
REMARK  219  A    between atoms: _497  and  _500
REMARK  220  A    between atoms: _500  and  _501
REMARK  221  A    between atoms: _503  and  _505
REMARK  222  A    between atoms: _505  and  _506
REMARK  223  A    between atoms: _505  and  _508
REMARK  224  A    between atoms: _508  and  _509
REMARK  225  A    between atoms: _509  and  _510
REMARK  226  A    between atoms: _510  and  _511
REMARK  227  A    between atoms: _511  and  _512
REMARK  228  A    between atoms: _516  and  _518
REMARK  229  A    between atoms: _518  and  _519
REMARK  230  A    between atoms: _521  and  _523
REMARK  231  A    between atoms: _523  and  _524
REMARK  232  A    between atoms: _523  and  _526
REMARK  233  A    between atoms: _526  and  _527
REMARK  234  A    between atoms: _527  and  _528
REMARK  235  A    between atoms: _530  and  _532
REMARK  236  A    between atoms: _532  and  _533
REMARK  237  A    between atoms: _532  and  _535
REMARK  238  A    between atoms: _535  and  _536
REMARK  239  A    between atoms: _536  and  _537
REMARK  240  A    between atoms: _540  and  _542
REMARK  241  A    between atoms: _542  and  _543
REMARK  242  A    between atoms: _542  and  _545
REMARK  243  A    between atoms: _545  and  _546
REMARK  244  A    between atoms: _551  and  _553
REMARK  245  A    between atoms: _553  and  _554
REMARK  246  A    between atoms: _553  and  _556
REMARK  247  A    between atoms: _556  and  _557
REMARK  248  A    between atoms: _560  and  _562
REMARK  249  A    between atoms: _562  and  _563
REMARK  250  A    between atoms: _562  and  _565
REMARK  251  A    between atoms: _565  and  _566
REMARK  252  A    between atoms: _571  and  _572
REMARK  253  A    between atoms: _574  and  _576
REMARK  254  A    between atoms: _576  and  _577
REMARK  255  A    between atoms: _576  and  _579
REMARK  256  A    between atoms: _579  and  _580
REMARK  257  A    between atoms: _582  and  _584
REMARK  258  A    between atoms: _584  and  _585
REMARK  259  A    between atoms: _584  and  _587
REMARK  260  A    between atoms: _587  and  _588
REMARK  261  A    between atoms: _588  and  _589
REMARK  262  A    between atoms: _591  and  _593
REMARK  263  A    between atoms: _593  and  _594
REMARK  264  A    between atoms: _593  and  _596
REMARK  265  A    between atoms: _596  and  _597
REMARK  266  A    between atoms: _597  and  _598
REMARK  267  A    between atoms: _598  and  _599
REMARK  268  A    between atoms: _599  and  _600
REMARK  269  A    between atoms: _604  and  _606
REMARK  270  A    between atoms: _606  and  _607
REMARK  271  A    between atoms: _606  and  _609
REMARK  272  A    between atoms: _612  and  _614
REMARK  273  A    between atoms: _614  and  _615
REMARK  274  A    between atoms: _614  and  _617
REMARK  275  A    between atoms: _617  and  _618
REMARK  276  A    between atoms: _621  and  _623
REMARK  277  A    between atoms: _623  and  _624
REMARK  278  A    between atoms: _623  and  _626
REMARK  279  A    between atoms: _626  and  _627
REMARK  280  A    between atoms: _630  and  _632
REMARK  281  A    between atoms: _632  and  _633
REMARK  282  A    between atoms: _632  and  _635
REMARK  283  A    between atoms: _635  and  _636
REMARK                            x       y       z     vdW  Elec       q    Type
REMARK                         _______ _______ _______ _____ _____    ______ ____
ROOT
ATOM      1  O   HOH     1     -24.027  -0.447  17.132  0.00  0.00    +0.000 OA
ENDROOT
TORSDOF 0
REMARK  Name = ../refined-set-2016/2p15/2p15_pocket.pdb
REMARK  283 active torsions:
REMARK  status: ('A' for Active; 'I' for Inactive)
REMARK    1  A    between atoms: _1  and  _3
REMARK    2  A    between atoms: _3  and  _4
REMARK    3  A    between atoms: _3  and  _6
REMARK    4  A    between atoms: _6  and  _7
REMARK    5  A    between atoms: _10  and  _12
REMARK    6  A    between atoms: _12  and  _13
REMARK    7  A    between atoms: _12  and  _15
REMARK    8  A    between atoms: _15  and  _16
REMARK    9  A    between atoms: _19  and  _21
REMARK   10  A    between atoms: _21  and  _22
REMARK   11  A    between atoms: _21  and  _24
REMARK   12  A    between atoms: _24  and  _25
REMARK   13  A    between atoms: _31  and  _33
REMARK   14  A    between atoms: _33  and  _34
REMARK   15  A    between atoms: _33  and  _36
REMARK   16  A    between atoms: _36  and  _37
REMARK   17  A    between atoms: _39  and  _41
REMARK   18  A    between atoms: _41  and  _42
REMARK   19  A    between atoms: _41  and  _44
REMARK   20  A    between atoms: _44  and  _45
REMARK   21  A    between atoms: _45  and  _46
REMARK   22  A    between atoms: _49  and  _51
REMARK   23  A    between atoms: _51  and  _52
REMARK   24  A    between atoms: _51  and  _54
REMARK   25  A    between atoms: _54  and  _55
REMARK   26  A    between atoms: _55  and  _56
REMARK   27  A    between atoms: _58  and  _60
REMARK   28  A    between atoms: _60  and  _61
REMARK   29  A    between atoms: _60  and  _63
REMARK   30  A    between atoms: _63  and  _64
REMARK   31  A    between atoms: _64  and  _65
REMARK   32  A    between atoms: _67  and  _69
REMARK   33  A    between atoms: _69  and  _70
REMARK   34  A    between atoms: _69  and  _72
REMARK   35  A    between atoms: _72  and  _73
REMARK   36  A    between atoms: _76  and  _78
REMARK   37  A    between atoms: _78  and  _79
REMARK   38  A    between atoms: _78  and  _81
REMARK   39  A    between atoms: _81  and  _82
REMARK   40  A    between atoms: _85  and  _87
REMARK   41  A    between atoms: _87  and  _88
REMARK   42  A    between atoms: _87  and  _90
REMARK   43  A    between atoms: _90  and  _91
REMARK   44  A    between atoms: _94  and  _96
REMARK   45  A    between atoms: _96  and  _97
REMARK   46  A    between atoms: _96  and  _99
REMARK   47  A    between atoms: _99  and  _100
REMARK   48  A    between atoms: _105  and  _107
REMARK   49  A    between atoms: _107  and  _108
REMARK   50  A    between atoms: _107  and  _110
REMARK   51  A    between atoms: _110  and  _111
REMARK   52  A    between atoms: _114  and  _116
REMARK   53  A    between atoms: _116  and  _117
REMARK   54  A    between atoms: _120  and  _122
REMARK   55  A    between atoms: _122  and  _123
REMARK   56  A    between atoms: _122  and  _125
REMARK   57  A    between atoms: _125  and  _126
REMARK   58  A    between atoms: _129  and  _131
REMARK   59  A    between atoms: _131  and  _132
REMARK   60  A    between atoms: _131  and  _134
REMARK   61  A    between atoms: _134  and  _135
REMARK   62  A    between atoms: _135  and  _136
REMARK   63  A    between atoms: _136  and  _137
REMARK   64  A    between atoms: _146  and  _148
REMARK   65  A    between atoms: _148  and  _149
REMARK   66  A    between atoms: _148  and  _151
REMARK   67  A    between atoms: _151  and  _152
REMARK   68  A    between atoms: _152  and  _153
REMARK   69  A    between atoms: _156  and  _158
REMARK   70  A    between atoms: _158  and  _159
REMARK   71  A    between atoms: _158  and  _161
REMARK   72  A    between atoms: _161  and  _162
REMARK   73  A    between atoms: _165  and  _167
REMARK   74  A    between atoms: _167  and  _168
REMARK   75  A    between atoms: _167  and  _170
REMARK   76  A    between atoms: _170  and  _171
REMARK   77  A    between atoms: _171  and  _172
REMARK   78  A    between atoms: _174  and  _176
REMARK   79  A    between atoms: _176  and  _177
REMARK   80  A    between atoms: _176  and  _179
REMARK   81  A    between atoms: _179  and  _180
REMARK   82  A    between atoms: _190  and  _192
REMARK   83  A    between atoms: _192  and  _193
REMARK   84  A    between atoms: _192  and  _195
REMARK   85  A    between atoms: _195  and  _196
REMARK   86  A    between atoms: _199  and  _201
REMARK   87  A    between atoms: _201  and  _202
REMARK   88  A    between atoms: _201  and  _204
REMARK   89  A    between atoms: _204  and  _205
REMARK   90  A    between atoms: _205  and  _206
REMARK   91  A    between atoms: _209  and  _211
REMARK   92  A    between atoms: _211  and  _212
REMARK   93  A    between atoms: _211  and  _214
REMARK   94  A    between atoms: _214  and  _215
REMARK   95  A    between atoms: _218  and  _220
REMARK   96  A    between atoms: _220  and  _221
REMARK   97  A    between atoms: _220  and  _223
REMARK   98  A    between atoms: _223  and  _224
REMARK   99  A    between atoms: _227  and  _229
REMARK  100  A    between atoms: _229  and  _230
REMARK  101  A    between atoms: _229  and  _232
REMARK  102  A    between atoms: _232  and  _233
REMARK  103  A    between atoms: _233  and  _234
REMARK  104  A    between atoms: _236  and  _238
REMARK  105  A    between atoms: _238  and  _239
REMARK  106  A    between atoms: _238  and  _241
REMARK  107  A    between atoms: _241  and  _242
REMARK  108  A    between atoms: _245  and  _247
REMARK  109  A    between atoms: _247  and  _248
REMARK  110  A    between atoms: _250  and  _252
REMARK  111  A    between atoms: _252  and  _253
REMARK  112  A    between atoms: _252  and  _255
REMARK  113  A    between atoms: _255  and  _256
REMARK  114  A    between atoms: _259  and  _261
REMARK  115  A    between atoms: _261  and  _262
REMARK  116  A    between atoms: _261  and  _264
REMARK  117  A    between atoms: _267  and  _269
REMARK  118  A    between atoms: _269  and  _270
REMARK  119  A    between atoms: _269  and  _272
REMARK  120  A    between atoms: _272  and  _273
REMARK  121  A    between atoms: _273  and  _274
REMARK  122  A    between atoms: _274  and  _275
REMARK  123  A    between atoms: _284  and  _286
REMARK  124  A    between atoms: _286  and  _287
REMARK  125  A    between atoms: _286  and  _289
REMARK  126  A    between atoms: _289  and  _290
REMARK  127  A    between atoms: _293  and  _295
REMARK  128  A    between atoms: _295  and  _296
REMARK  129  A    between atoms: _295  and  _298
REMARK  130  A    between atoms: _298  and  _299
REMARK  131  A    between atoms: _302  and  _304
REMARK  132  A    between atoms: _304  and  _305
REMARK  133  A    between atoms: _304  and  _307
REMARK  134  A    between atoms: _307  and  _308
REMARK  135  A    between atoms: _314  and  _316
REMARK  136  A    between atoms: _316  and  _317
REMARK  137  A    between atoms: _320  and  _322
REMARK  138  A    between atoms: _322  and  _323
REMARK  139  A    between atoms: _322  and  _325
REMARK  140  A    between atoms: _325  and  _326
REMARK  141  A    between atoms: _329  and  _331
REMARK  142  A    between atoms: _331  and  _332
REMARK  143  A    between atoms: _331  and  _334
REMARK  144  A    between atoms: _334  and  _335
REMARK  145  A    between atoms: _338  and  _340
REMARK  146  A    between atoms: _340  and  _341
REMARK  147  A    between atoms: _340  and  _343
REMARK  148  A    between atoms: _343  and  _344
REMARK  149  A    between atoms: _347  and  _349
REMARK  150  A    between atoms: _349  and  _350
REMARK  151  A    between atoms: _349  and  _352
REMARK  152  A    between atoms: _352  and  _353
REMARK  153  A    between atoms: _353  and  _354
REMARK  154  A    between atoms: _359  and  _361
REMARK  155  A    between atoms: _361  and  _362
REMARK  156  A    between atoms: _361  and  _364
REMARK  157  A    between atoms: _364  and  _365
REMARK  158  A    between atoms: _365  and  _366
REMARK  159  A    between atoms: _366  and  _367
REMARK  160  A    between atoms: _367  and  _368
REMARK  161  A    between atoms: _372  and  _374
REMARK  162  A    between atoms: _374  and  _375
REMARK  163  A    between atoms: _374  and  _377
REMARK  164  A    between atoms: _379  and  _381
REMARK  165  A    between atoms: _381  and  _382
REMARK  166  A    between atoms: _381  and  _384
REMARK  167  A    between atoms: _387  and  _389
REMARK  168  A    between atoms: _389  and  _390
REMARK  169  A    between atoms: _389  and  _392
REMARK  170  A    between atoms: _392  and  _393
REMARK  171  A    between atoms: _393  and  _394
REMARK  172  A    between atoms: _397  and  _399
REMARK  173  A    between atoms: _399  and  _400
REMARK  174  A    between atoms: _402  and  _404
REMARK  175  A    between atoms: _404  and  _405
REMARK  176  A    between atoms: _404  and  _407
REMARK  177  A    between atoms: _407  and  _408
REMARK  178  A    between atoms: _408  and  _409
REMARK  179  A    between atoms: _411  and  _413
REMARK  180  A    between atoms: _413  and  _414
REMARK  181  A    between atoms: _413  and  _416
REMARK  182  A    between atoms: _419  and  _421
REMARK  183  A    between atoms: _421  and  _422
REMARK  184  A    between atoms: _421  and  _424
REMARK  185  A    between atoms: _424  and  _425
REMARK  186  A    between atoms: _425  and  _426
REMARK  187  A    between atoms: _429  and  _431
REMARK  188  A    between atoms: _431  and  _432
REMARK  189  A    between atoms: _431  and  _434
REMARK  190  A    between atoms: _434  and  _435
REMARK  191  A    between atoms: _438  and  _440
REMARK  192  A    between atoms: _440  and  _441
REMARK  193  A    between atoms: _440  and  _443
REMARK  194  A    between atoms: _443  and  _444
REMARK  195  A    between atoms: _450  and  _452
REMARK  196  A    between atoms: _452  and  _453
REMARK  197  A    between atoms: _452  and  _455
REMARK  198  A    between atoms: _455  and  _456
REMARK  199  A    between atoms: _459  and  _461
REMARK  200  A    between atoms: _461  and  _462
REMARK  201  A    between atoms: _461  and  _464
REMARK  202  A    between atoms: _464  and  _465
REMARK  203  A    between atoms: _465  and  _466
REMARK  204  A    between atoms: _468  and  _470
REMARK  205  A    between atoms: _470  and  _471
REMARK  206  A    between atoms: _470  and  _473
REMARK  207  A    between atoms: _473  and  _474
REMARK  208  A    between atoms: _477  and  _479
REMARK  209  A    between atoms: _479  and  _480
REMARK  210  A    between atoms: _479  and  _482
REMARK  211  A    between atoms: _482  and  _483
REMARK  212  A    between atoms: _486  and  _488
REMARK  213  A    between atoms: _488  and  _489
REMARK  214  A    between atoms: _488  and  _491
REMARK  215  A    between atoms: _491  and  _492
REMARK  216  A    between atoms: _492  and  _493
REMARK  217  A    between atoms: _495  and  _497
REMARK  218  A    between atoms: _497  and  _498
REMARK  219  A    between atoms: _497  and  _500
REMARK  220  A    between atoms: _500  and  _501
REMARK  221  A    between atoms: _503  and  _505
REMARK  222  A    between atoms: _505  and  _506
REMARK  223  A    between atoms: _505  and  _508
REMARK  224  A    between atoms: _508  and  _509
REMARK  225  A    between atoms: _509  and  _510
REMARK  226  A    between atoms: _510  and  _511
REMARK  227  A    between atoms: _511  and  _512
REMARK  228  A    between atoms: _516  and  _518
REMARK  229  A    between atoms: _518  and  _519
REMARK  230  A    between atoms: _521  and  _523
REMARK  231  A    between atoms: _523  and  _524
REMARK  232  A    between atoms: _523  and  _526
REMARK  233  A    between atoms: _526  and  _527
REMARK  234  A    between atoms: _527  and  _528
REMARK  235  A    between atoms: _530  and  _532
REMARK  236  A    between atoms: _532  and  _533
REMARK  237  A    between atoms: _532  and  _535
REMARK  238  A    between atoms: _535  and  _536
REMARK  239  A    between atoms: _536  and  _537
REMARK  240  A    between atoms: _540  and  _542
REMARK  241  A    between atoms: _542  and  _543
REMARK  242  A    between atoms: _542  and  _545
REMARK  243  A    between atoms: _545  and  _546
REMARK  244  A    between atoms: _551  and  _553
REMARK  245  A    between atoms: _553  and  _554
REMARK  246  A    between atoms: _553  and  _556
REMARK  247  A    between atoms: _556  and  _557
REMARK  248  A    between atoms: _560  and  _562
REMARK  249  A    between atoms: _562  and  _563
REMARK  250  A    between atoms: _562  and  _565
REMARK  251  A    between atoms: _565  and  _566
REMARK  252  A    between atoms: _571  and  _572
REMARK  253  A    between atoms: _574  and  _576
REMARK  254  A    between atoms: _576  and  _577
REMARK  255  A    between atoms: _576  and  _579
REMARK  256  A    between atoms: _579  and  _580
REMARK  257  A    between atoms: _582  and  _584
REMARK  258  A    between atoms: _584  and  _585
REMARK  259  A    between atoms: _584  and  _587
REMARK  260  A    between atoms: _587  and  _588
REMARK  261  A    between atoms: _588  and  _589
REMARK  262  A    between atoms: _591  and  _593
REMARK  263  A    between atoms: _593  and  _594
REMARK  264  A    between atoms: _593  and  _596
REMARK  265  A    between atoms: _596  and  _597
REMARK  266  A    between atoms: _597  and  _598
REMARK  267  A    between atoms: _598  and  _599
REMARK  268  A    between atoms: _599  and  _600
REMARK  269  A    between atoms: _604  and  _606
REMARK  270  A    between atoms: _606  and  _607
REMARK  271  A    between atoms: _606  and  _609
REMARK  272  A    between atoms: _612  and  _614
REMARK  273  A    between atoms: _614  and  _615
REMARK  274  A    between atoms: _614  and  _617
REMARK  275  A    between atoms: _617  and  _618
REMARK  276  A    between atoms: _621  and  _623
REMARK  277  A    between atoms: _623  and  _624
REMARK  278  A    between atoms: _623  and  _626
REMARK  279  A    between atoms: _626  and  _627
REMARK  280  A    between atoms: _630  and  _632
REMARK  281  A    between atoms: _632  and  _633
REMARK  282  A    between atoms: _632  and  _635
REMARK  283  A    between atoms: _635  and  _636
REMARK                            x       y       z     vdW  Elec       q    Type
REMARK                         _______ _______ _______ _____ _____    ______ ____
ROOT
ATOM      1  O   HOH     1     -37.633  16.772  20.353  0.00  0.00    +0.000 OA
ENDROOT
TORSDOF 0
REMARK  Name = ../refined-set-2016/2p15/2p15_pocket.pdb
REMARK  283 active torsions:
REMARK  status: ('A' for Active; 'I' for Inactive)
REMARK    1  A    between atoms: _1  and  _3
REMARK    2  A    between atoms: _3  and  _4
REMARK    3  A    between atoms: _3  and  _6
REMARK    4  A    between atoms: _6  and  _7
REMARK    5  A    between atoms: _10  and  _12
REMARK    6  A    between atoms: _12  and  _13
REMARK    7  A    between atoms: _12  and  _15
REMARK    8  A    between atoms: _15  and  _16
REMARK    9  A    between atoms: _19  and  _21
REMARK   10  A    between atoms: _21  and  _22
REMARK   11  A    between atoms: _21  and  _24
REMARK   12  A    between atoms: _24  and  _25
REMARK   13  A    between atoms: _31  and  _33
REMARK   14  A    between atoms: _33  and  _34
REMARK   15  A    between atoms: _33  and  _36
REMARK   16  A    between atoms: _36  and  _37
REMARK   17  A    between atoms: _39  and  _41
REMARK   18  A    between atoms: _41  and  _42
REMARK   19  A    between atoms: _41  and  _44
REMARK   20  A    between atoms: _44  and  _45
REMARK   21  A    between atoms: _45  and  _46
REMARK   22  A    between atoms: _49  and  _51
REMARK   23  A    between atoms: _51  and  _52
REMARK   24  A    between atoms: _51  and  _54
REMARK   25  A    between atoms: _54  and  _55
REMARK   26  A    between atoms: _55  and  _56
REMARK   27  A    between atoms: _58  and  _60
REMARK   28  A    between atoms: _60  and  _61
REMARK   29  A    between atoms: _60  and  _63
REMARK   30  A    between atoms: _63  and  _64
REMARK   31  A    between atoms: _64  and  _65
REMARK   32  A    between atoms: _67  and  _69
REMARK   33  A    between atoms: _69  and  _70
REMARK   34  A    between atoms: _69  and  _72
REMARK   35  A    between atoms: _72  and  _73
REMARK   36  A    between atoms: _76  and  _78
REMARK   37  A    between atoms: _78  and  _79
REMARK   38  A    between atoms: _78  and  _81
REMARK   39  A    between atoms: _81  and  _82
REMARK   40  A    between atoms: _85  and  _87
REMARK   41  A    between atoms: _87  and  _88
REMARK   42  A    between atoms: _87  and  _90
REMARK   43  A    between atoms: _90  and  _91
REMARK   44  A    between atoms: _94  and  _96
REMARK   45  A    between atoms: _96  and  _97
REMARK   46  A    between atoms: _96  and  _99
REMARK   47  A    between atoms: _99  and  _100
REMARK   48  A    between atoms: _105  and  _107
REMARK   49  A    between atoms: _107  and  _108
REMARK   50  A    between atoms: _107  and  _110
REMARK   51  A    between atoms: _110  and  _111
REMARK   52  A    between atoms: _114  and  _116
REMARK   53  A    between atoms: _116  and  _117
REMARK   54  A    between atoms: _120  and  _122
REMARK   55  A    between atoms: _122  and  _123
REMARK   56  A    between atoms: _122  and  _125
REMARK   57  A    between atoms: _125  and  _126
REMARK   58  A    between atoms: _129  and  _131
REMARK   59  A    between atoms: _131  and  _132
REMARK   60  A    between atoms: _131  and  _134
REMARK   61  A    between atoms: _134  and  _135
REMARK   62  A    between atoms: _135  and  _136
REMARK   63  A    between atoms: _136  and  _137
REMARK   64  A    between atoms: _146  and  _148
REMARK   65  A    between atoms: _148  and  _149
REMARK   66  A    between atoms: _148  and  _151
REMARK   67  A    between atoms: _151  and  _152
REMARK   68  A    between atoms: _152  and  _153
REMARK   69  A    between atoms: _156  and  _158
REMARK   70  A    between atoms: _158  and  _159
REMARK   71  A    between atoms: _158  and  _161
REMARK   72  A    between atoms: _161  and  _162
REMARK   73  A    between atoms: _165  and  _167
REMARK   74  A    between atoms: _167  and  _168
REMARK   75  A    between atoms: _167  and  _170
REMARK   76  A    between atoms: _170  and  _171
REMARK   77  A    between atoms: _171  and  _172
REMARK   78  A    between atoms: _174  and  _176
REMARK   79  A    between atoms: _176  and  _177
REMARK   80  A    between atoms: _176  and  _179
REMARK   81  A    between atoms: _179  and  _180
REMARK   82  A    between atoms: _190  and  _192
REMARK   83  A    between atoms: _192  and  _193
REMARK   84  A    between atoms: _192  and  _195
REMARK   85  A    between atoms: _195  and  _196
REMARK   86  A    between atoms: _199  and  _201
REMARK   87  A    between atoms: _201  and  _202
REMARK   88  A    between atoms: _201  and  _204
REMARK   89  A    between atoms: _204  and  _205
REMARK   90  A    between atoms: _205  and  _206
REMARK   91  A    between atoms: _209  and  _211
REMARK   92  A    between atoms: _211  and  _212
REMARK   93  A    between atoms: _211  and  _214
REMARK   94  A    between atoms: _214  and  _215
REMARK   95  A    between atoms: _218  and  _220
REMARK   96  A    between atoms: _220  and  _221
REMARK   97  A    between atoms: _220  and  _223
REMARK   98  A    between atoms: _223  and  _224
REMARK   99  A    between atoms: _227  and  _229
REMARK  100  A    between atoms: _229  and  _230
REMARK  101  A    between atoms: _229  and  _232
REMARK  102  A    between atoms: _232  and  _233
REMARK  103  A    between atoms: _233  and  _234
REMARK  104  A    between atoms: _236  and  _238
REMARK  105  A    between atoms: _238  and  _239
REMARK  106  A    between atoms: _238  and  _241
REMARK  107  A    between atoms: _241  and  _242
REMARK  108  A    between atoms: _245  and  _247
REMARK  109  A    between atoms: _247  and  _248
REMARK  110  A    between atoms: _250  and  _252
REMARK  111  A    between atoms: _252  and  _253
REMARK  112  A    between atoms: _252  and  _255
REMARK  113  A    between atoms: _255  and  _256
REMARK  114  A    between atoms: _259  and  _261
REMARK  115  A    between atoms: _261  and  _262
REMARK  116  A    between atoms: _261  and  _264
REMARK  117  A    between atoms: _267  and  _269
REMARK  118  A    between atoms: _269  and  _270
REMARK  119  A    between atoms: _269  and  _272
REMARK  120  A    between atoms: _272  and  _273
REMARK  121  A    between atoms: _273  and  _274
REMARK  122  A    between atoms: _274  and  _275
REMARK  123  A    between atoms: _284  and  _286
REMARK  124  A    between atoms: _286  and  _287
REMARK  125  A    between atoms: _286  and  _289
REMARK  126  A    between atoms: _289  and  _290
REMARK  127  A    between atoms: _293  and  _295
REMARK  128  A    between atoms: _295  and  _296
REMARK  129  A    between atoms: _295  and  _298
REMARK  130  A    between atoms: _298  and  _299
REMARK  131  A    between atoms: _302  and  _304
REMARK  132  A    between atoms: _304  and  _305
REMARK  133  A    between atoms: _304  and  _307
REMARK  134  A    between atoms: _307  and  _308
REMARK  135  A    between atoms: _314  and  _316
REMARK  136  A    between atoms: _316  and  _317
REMARK  137  A    between atoms: _320  and  _322
REMARK  138  A    between atoms: _322  and  _323
REMARK  139  A    between atoms: _322  and  _325
REMARK  140  A    between atoms: _325  and  _326
REMARK  141  A    between atoms: _329  and  _331
REMARK  142  A    between atoms: _331  and  _332
REMARK  143  A    between atoms: _331  and  _334
REMARK  144  A    between atoms: _334  and  _335
REMARK  145  A    between atoms: _338  and  _340
REMARK  146  A    between atoms: _340  and  _341
REMARK  147  A    between atoms: _340  and  _343
REMARK  148  A    between atoms: _343  and  _344
REMARK  149  A    between atoms: _347  and  _349
REMARK  150  A    between atoms: _349  and  _350
REMARK  151  A    between atoms: _349  and  _352
REMARK  152  A    between atoms: _352  and  _353
REMARK  153  A    between atoms: _353  and  _354
REMARK  154  A    between atoms: _359  and  _361
REMARK  155  A    between atoms: _361  and  _362
REMARK  156  A    between atoms: _361  and  _364
REMARK  157  A    between atoms: _364  and  _365
REMARK  158  A    between atoms: _365  and  _366
REMARK  159  A    between atoms: _366  and  _367
REMARK  160  A    between atoms: _367  and  _368
REMARK  161  A    between atoms: _372  and  _374
REMARK  162  A    between atoms: _374  and  _375
REMARK  163  A    between atoms: _374  and  _377
REMARK  164  A    between atoms: _379  and  _381
REMARK  165  A    between atoms: _381  and  _382
REMARK  166  A    between atoms: _381  and  _384
REMARK  167  A    between atoms: _387  and  _389
REMARK  168  A    between atoms: _389  and  _390
REMARK  169  A    between atoms: _389  and  _392
REMARK  170  A    between atoms: _392  and  _393
REMARK  171  A    between atoms: _393  and  _394
REMARK  172  A    between atoms: _397  and  _399
REMARK  173  A    between atoms: _399  and  _400
REMARK  174  A    between atoms: _402  and  _404
REMARK  175  A    between atoms: _404  and  _405
REMARK  176  A    between atoms: _404  and  _407
REMARK  177  A    between atoms: _407  and  _408
REMARK  178  A    between atoms: _408  and  _409
REMARK  179  A    between atoms: _411  and  _413
REMARK  180  A    between atoms: _413  and  _414
REMARK  181  A    between atoms: _413  and  _416
REMARK  182  A    between atoms: _419  and  _421
REMARK  183  A    between atoms: _421  and  _422
REMARK  184  A    between atoms: _421  and  _424
REMARK  185  A    between atoms: _424  and  _425
REMARK  186  A    between atoms: _425  and  _426
REMARK  187  A    between atoms: _429  and  _431
REMARK  188  A    between atoms: _431  and  _432
REMARK  189  A    between atoms: _431  and  _434
REMARK  190  A    between atoms: _434  and  _435
REMARK  191  A    between atoms: _438  and  _440
REMARK  192  A    between atoms: _440  and  _441
REMARK  193  A    between atoms: _440  and  _443
REMARK  194  A    between atoms: _443  and  _444
REMARK  195  A    between atoms: _450  and  _452
REMARK  196  A    between atoms: _452  and  _453
REMARK  197  A    between atoms: _452  and  _455
REMARK  198  A    between atoms: _455  and  _456
REMARK  199  A    between atoms: _459  and  _461
REMARK  200  A    between atoms: _461  and  _462
REMARK  201  A    between atoms: _461  and  _464
REMARK  202  A    between atoms: _464  and  _465
REMARK  203  A    between atoms: _465  and  _466
REMARK  204  A    between atoms: _468  and  _470
REMARK  205  A    between atoms: _470  and  _471
REMARK  206  A    between atoms: _470  and  _473
REMARK  207  A    between atoms: _473  and  _474
REMARK  208  A    between atoms: _477  and  _479
REMARK  209  A    between atoms: _479  and  _480
REMARK  210  A    between atoms: _479  and  _482
REMARK  211  A    between atoms: _482  and  _483
REMARK  212  A    between atoms: _486  and  _488
REMARK  213  A    between atoms: _488  and  _489
REMARK  214  A    between atoms: _488  and  _491
REMARK  215  A    between atoms: _491  and  _492
REMARK  216  A    between atoms: _492  and  _493
REMARK  217  A    between atoms: _495  and  _497
REMARK  218  A    between atoms: _497  and  _498
REMARK  219  A    between atoms: _497  and  _500
REMARK  220  A    between atoms: _500  and  _501
REMARK  221  A    between atoms: _503  and  _505
REMARK  222  A    between atoms: _505  and  _506
REMARK  223  A    between atoms: _505  and  _508
REMARK  224  A    between atoms: _508  and  _509
REMARK  225  A    between atoms: _509  and  _510
REMARK  226  A    between atoms: _510  and  _511
REMARK  227  A    between atoms: _511  and  _512
REMARK  228  A    between atoms: _516  and  _518
REMARK  229  A    between atoms: _518  and  _519
REMARK  230  A    between atoms: _521  and  _523
REMARK  231  A    between atoms: _523  and  _524
REMARK  232  A    between atoms: _523  and  _526
REMARK  233  A    between atoms: _526  and  _527
REMARK  234  A    between atoms: _527  and  _528
REMARK  235  A    between atoms: _530  and  _532
REMARK  236  A    between atoms: _532  and  _533
REMARK  237  A    between atoms: _532  and  _535
REMARK  238  A    between atoms: _535  and  _536
REMARK  239  A    between atoms: _536  and  _537
REMARK  240  A    between atoms: _540  and  _542
REMARK  241  A    between atoms: _542  and  _543
REMARK  242  A    between atoms: _542  and  _545
REMARK  243  A    between atoms: _545  and  _546
REMARK  244  A    between atoms: _551  and  _553
REMARK  245  A    between atoms: _553  and  _554
REMARK  246  A    between atoms: _553  and  _556
REMARK  247  A    between atoms: _556  and  _557
REMARK  248  A    between atoms: _560  and  _562
REMARK  249  A    between atoms: _562  and  _563
REMARK  250  A    between atoms: _562  and  _565
REMARK  251  A    between atoms: _565  and  _566
REMARK  252  A    between atoms: _571  and  _572
REMARK  253  A    between atoms: _574  and  _576
REMARK  254  A    between atoms: _576  and  _577
REMARK  255  A    between atoms: _576  and  _579
REMARK  256  A    between atoms: _579  and  _580
REMARK  257  A    between atoms: _582  and  _584
REMARK  258  A    between atoms: _584  and  _585
REMARK  259  A    between atoms: _584  and  _587
REMARK  260  A    between atoms: _587  and  _588
REMARK  261  A    between atoms: _588  and  _589
REMARK  262  A    between atoms: _591  and  _593
REMARK  263  A    between atoms: _593  and  _594
REMARK  264  A    between atoms: _593  and  _596
REMARK  265  A    between atoms: _596  and  _597
REMARK  266  A    between atoms: _597  and  _598
REMARK  267  A    between atoms: _598  and  _599
REMARK  268  A    between atoms: _599  and  _600
REMARK  269  A    between atoms: _604  and  _606
REMARK  270  A    between atoms: _606  and  _607
REMARK  271  A    between atoms: _606  and  _609
REMARK  272  A    between atoms: _612  and  _614
REMARK  273  A    between atoms: _614  and  _615
REMARK  274  A    between atoms: _614  and  _617
REMARK  275  A    between atoms: _617  and  _618
REMARK  276  A    between atoms: _621  and  _623
REMARK  277  A    between atoms: _623  and  _624
REMARK  278  A    between atoms: _623  and  _626
REMARK  279  A    between atoms: _626  and  _627
REMARK  280  A    between atoms: _630  and  _632
REMARK  281  A    between atoms: _632  and  _633
REMARK  282  A    between atoms: _632  and  _635
REMARK  283  A    between atoms: _635  and  _636
REMARK                            x       y       z     vdW  Elec       q    Type
REMARK                         _______ _______ _______ _____ _____    ______ ____
ROOT
ATOM      1  O   HOH     1     -39.093  12.855  17.380  0.00  0.00    +0.000 OA
ENDROOT
TORSDOF 0
REMARK  Name = ../refined-set-2016/2p15/2p15_pocket.pdb
REMARK  283 active torsions:
REMARK  status: ('A' for Active; 'I' for Inactive)
REMARK    1  A    between atoms: _1  and  _3
REMARK    2  A    between atoms: _3  and  _4
REMARK    3  A    between atoms: _3  and  _6
REMARK    4  A    between atoms: _6  and  _7
REMARK    5  A    between atoms: _10  and  _12
REMARK    6  A    between atoms: _12  and  _13
REMARK    7  A    between atoms: _12  and  _15
REMARK    8  A    between atoms: _15  and  _16
REMARK    9  A    between atoms: _19  and  _21
REMARK   10  A    between atoms: _21  and  _22
REMARK   11  A    between atoms: _21  and  _24
REMARK   12  A    between atoms: _24  and  _25
REMARK   13  A    between atoms: _31  and  _33
REMARK   14  A    between atoms: _33  and  _34
REMARK   15  A    between atoms: _33  and  _36
REMARK   16  A    between atoms: _36  and  _37
REMARK   17  A    between atoms: _39  and  _41
REMARK   18  A    between atoms: _41  and  _42
REMARK   19  A    between atoms: _41  and  _44
REMARK   20  A    between atoms: _44  and  _45
REMARK   21  A    between atoms: _45  and  _46
REMARK   22  A    between atoms: _49  and  _51
REMARK   23  A    between atoms: _51  and  _52
REMARK   24  A    between atoms: _51  and  _54
REMARK   25  A    between atoms: _54  and  _55
REMARK   26  A    between atoms: _55  and  _56
REMARK   27  A    between atoms: _58  and  _60
REMARK   28  A    between atoms: _60  and  _61
REMARK   29  A    between atoms: _60  and  _63
REMARK   30  A    between atoms: _63  and  _64
REMARK   31  A    between atoms: _64  and  _65
REMARK   32  A    between atoms: _67  and  _69
REMARK   33  A    between atoms: _69  and  _70
REMARK   34  A    between atoms: _69  and  _72
REMARK   35  A    between atoms: _72  and  _73
REMARK   36  A    between atoms: _76  and  _78
REMARK   37  A    between atoms: _78  and  _79
REMARK   38  A    between atoms: _78  and  _81
REMARK   39  A    between atoms: _81  and  _82
REMARK   40  A    between atoms: _85  and  _87
REMARK   41  A    between atoms: _87  and  _88
REMARK   42  A    between atoms: _87  and  _90
REMARK   43  A    between atoms: _90  and  _91
REMARK   44  A    between atoms: _94  and  _96
REMARK   45  A    between atoms: _96  and  _97
REMARK   46  A    between atoms: _96  and  _99
REMARK   47  A    between atoms: _99  and  _100
REMARK   48  A    between atoms: _105  and  _107
REMARK   49  A    between atoms: _107  and  _108
REMARK   50  A    between atoms: _107  and  _110
REMARK   51  A    between atoms: _110  and  _111
REMARK   52  A    between atoms: _114  and  _116
REMARK   53  A    between atoms: _116  and  _117
REMARK   54  A    between atoms: _120  and  _122
REMARK   55  A    between atoms: _122  and  _123
REMARK   56  A    between atoms: _122  and  _125
REMARK   57  A    between atoms: _125  and  _126
REMARK   58  A    between atoms: _129  and  _131
REMARK   59  A    between atoms: _131  and  _132
REMARK   60  A    between atoms: _131  and  _134
REMARK   61  A    between atoms: _134  and  _135
REMARK   62  A    between atoms: _135  and  _136
REMARK   63  A    between atoms: _136  and  _137
REMARK   64  A    between atoms: _146  and  _148
REMARK   65  A    between atoms: _148  and  _149
REMARK   66  A    between atoms: _148  and  _151
REMARK   67  A    between atoms: _151  and  _152
REMARK   68  A    between atoms: _152  and  _153
REMARK   69  A    between atoms: _156  and  _158
REMARK   70  A    between atoms: _158  and  _159
REMARK   71  A    between atoms: _158  and  _161
REMARK   72  A    between atoms: _161  and  _162
REMARK   73  A    between atoms: _165  and  _167
REMARK   74  A    between atoms: _167  and  _168
REMARK   75  A    between atoms: _167  and  _170
REMARK   76  A    between atoms: _170  and  _171
REMARK   77  A    between atoms: _171  and  _172
REMARK   78  A    between atoms: _174  and  _176
REMARK   79  A    between atoms: _176  and  _177
REMARK   80  A    between atoms: _176  and  _179
REMARK   81  A    between atoms: _179  and  _180
REMARK   82  A    between atoms: _190  and  _192
REMARK   83  A    between atoms: _192  and  _193
REMARK   84  A    between atoms: _192  and  _195
REMARK   85  A    between atoms: _195  and  _196
REMARK   86  A    between atoms: _199  and  _201
REMARK   87  A    between atoms: _201  and  _202
REMARK   88  A    between atoms: _201  and  _204
REMARK   89  A    between atoms: _204  and  _205
REMARK   90  A    between atoms: _205  and  _206
REMARK   91  A    between atoms: _209  and  _211
REMARK   92  A    between atoms: _211  and  _212
REMARK   93  A    between atoms: _211  and  _214
REMARK   94  A    between atoms: _214  and  _215
REMARK   95  A    between atoms: _218  and  _220
REMARK   96  A    between atoms: _220  and  _221
REMARK   97  A    between atoms: _220  and  _223
REMARK   98  A    between atoms: _223  and  _224
REMARK   99  A    between atoms: _227  and  _229
REMARK  100  A    between atoms: _229  and  _230
REMARK  101  A    between atoms: _229  and  _232
REMARK  102  A    between atoms: _232  and  _233
REMARK  103  A    between atoms: _233  and  _234
REMARK  104  A    between atoms: _236  and  _238
REMARK  105  A    between atoms: _238  and  _239
REMARK  106  A    between atoms: _238  and  _241
REMARK  107  A    between atoms: _241  and  _242
REMARK  108  A    between atoms: _245  and  _247
REMARK  109  A    between atoms: _247  and  _248
REMARK  110  A    between atoms: _250  and  _252
REMARK  111  A    between atoms: _252  and  _253
REMARK  112  A    between atoms: _252  and  _255
REMARK  113  A    between atoms: _255  and  _256
REMARK  114  A    between atoms: _259  and  _261
REMARK  115  A    between atoms: _261  and  _262
REMARK  116  A    between atoms: _261  and  _264
REMARK  117  A    between atoms: _267  and  _269
REMARK  118  A    between atoms: _269  and  _270
REMARK  119  A    between atoms: _269  and  _272
REMARK  120  A    between atoms: _272  and  _273
REMARK  121  A    between atoms: _273  and  _274
REMARK  122  A    between atoms: _274  and  _275
REMARK  123  A    between atoms: _284  and  _286
REMARK  124  A    between atoms: _286  and  _287
REMARK  125  A    between atoms: _286  and  _289
REMARK  126  A    between atoms: _289  and  _290
REMARK  127  A    between atoms: _293  and  _295
REMARK  128  A    between atoms: _295  and  _296
REMARK  129  A    between atoms: _295  and  _298
REMARK  130  A    between atoms: _298  and  _299
REMARK  131  A    between atoms: _302  and  _304
REMARK  132  A    between atoms: _304  and  _305
REMARK  133  A    between atoms: _304  and  _307
REMARK  134  A    between atoms: _307  and  _308
REMARK  135  A    between atoms: _314  and  _316
REMARK  136  A    between atoms: _316  and  _317
REMARK  137  A    between atoms: _320  and  _322
REMARK  138  A    between atoms: _322  and  _323
REMARK  139  A    between atoms: _322  and  _325
REMARK  140  A    between atoms: _325  and  _326
REMARK  141  A    between atoms: _329  and  _331
REMARK  142  A    between atoms: _331  and  _332
REMARK  143  A    between atoms: _331  and  _334
REMARK  144  A    between atoms: _334  and  _335
REMARK  145  A    between atoms: _338  and  _340
REMARK  146  A    between atoms: _340  and  _341
REMARK  147  A    between atoms: _340  and  _343
REMARK  148  A    between atoms: _343  and  _344
REMARK  149  A    between atoms: _347  and  _349
REMARK  150  A    between atoms: _349  and  _350
REMARK  151  A    between atoms: _349  and  _352
REMARK  152  A    between atoms: _352  and  _353
REMARK  153  A    between atoms: _353  and  _354
REMARK  154  A    between atoms: _359  and  _361
REMARK  155  A    between atoms: _361  and  _362
REMARK  156  A    between atoms: _361  and  _364
REMARK  157  A    between atoms: _364  and  _365
REMARK  158  A    between atoms: _365  and  _366
REMARK  159  A    between atoms: _366  and  _367
REMARK  160  A    between atoms: _367  and  _368
REMARK  161  A    between atoms: _372  and  _374
REMARK  162  A    between atoms: _374  and  _375
REMARK  163  A    between atoms: _374  and  _377
REMARK  164  A    between atoms: _379  and  _381
REMARK  165  A    between atoms: _381  and  _382
REMARK  166  A    between atoms: _381  and  _384
REMARK  167  A    between atoms: _387  and  _389
REMARK  168  A    between atoms: _389  and  _390
REMARK  169  A    between atoms: _389  and  _392
REMARK  170  A    between atoms: _392  and  _393
REMARK  171  A    between atoms: _393  and  _394
REMARK  172  A    between atoms: _397  and  _399
REMARK  173  A    between atoms: _399  and  _400
REMARK  174  A    between atoms: _402  and  _404
REMARK  175  A    between atoms: _404  and  _405
REMARK  176  A    between atoms: _404  and  _407
REMARK  177  A    between atoms: _407  and  _408
REMARK  178  A    between atoms: _408  and  _409
REMARK  179  A    between atoms: _411  and  _413
REMARK  180  A    between atoms: _413  and  _414
REMARK  181  A    between atoms: _413  and  _416
REMARK  182  A    between atoms: _419  and  _421
REMARK  183  A    between atoms: _421  and  _422
REMARK  184  A    between atoms: _421  and  _424
REMARK  185  A    between atoms: _424  and  _425
REMARK  186  A    between atoms: _425  and  _426
REMARK  187  A    between atoms: _429  and  _431
REMARK  188  A    between atoms: _431  and  _432
REMARK  189  A    between atoms: _431  and  _434
REMARK  190  A    between atoms: _434  and  _435
REMARK  191  A    between atoms: _438  and  _440
REMARK  192  A    between atoms: _440  and  _441
REMARK  193  A    between atoms: _440  and  _443
REMARK  194  A    between atoms: _443  and  _444
REMARK  195  A    between atoms: _450  and  _452
REMARK  196  A    between atoms: _452  and  _453
REMARK  197  A    between atoms: _452  and  _455
REMARK  198  A    between atoms: _455  and  _456
REMARK  199  A    between atoms: _459  and  _461
REMARK  200  A    between atoms: _461  and  _462
REMARK  201  A    between atoms: _461  and  _464
REMARK  202  A    between atoms: _464  and  _465
REMARK  203  A    between atoms: _465  and  _466
REMARK  204  A    between atoms: _468  and  _470
REMARK  205  A    between atoms: _470  and  _471
REMARK  206  A    between atoms: _470  and  _473
REMARK  207  A    between atoms: _473  and  _474
REMARK  208  A    between atoms: _477  and  _479
REMARK  209  A    between atoms: _479  and  _480
REMARK  210  A    between atoms: _479  and  _482
REMARK  211  A    between atoms: _482  and  _483
REMARK  212  A    between atoms: _486  and  _488
REMARK  213  A    between atoms: _488  and  _489
REMARK  214  A    between atoms: _488  and  _491
REMARK  215  A    between atoms: _491  and  _492
REMARK  216  A    between atoms: _492  and  _493
REMARK  217  A    between atoms: _495  and  _497
REMARK  218  A    between atoms: _497  and  _498
REMARK  219  A    between atoms: _497  and  _500
REMARK  220  A    between atoms: _500  and  _501
REMARK  221  A    between atoms: _503  and  _505
REMARK  222  A    between atoms: _505  and  _506
REMARK  223  A    between atoms: _505  and  _508
REMARK  224  A    between atoms: _508  and  _509
REMARK  225  A    between atoms: _509  and  _510
REMARK  226  A    between atoms: _510  and  _511
REMARK  227  A    between atoms: _511  and  _512
REMARK  228  A    between atoms: _516  and  _518
REMARK  229  A    between atoms: _518  and  _519
REMARK  230  A    between atoms: _521  and  _523
REMARK  231  A    between atoms: _523  and  _524
REMARK  232  A    between atoms: _523  and  _526
REMARK  233  A    between atoms: _526  and  _527
REMARK  234  A    between atoms: _527  and  _528
REMARK  235  A    between atoms: _530  and  _532
REMARK  236  A    between atoms: _532  and  _533
REMARK  237  A    between atoms: _532  and  _535
REMARK  238  A    between atoms: _535  and  _536
REMARK  239  A    between atoms: _536  and  _537
REMARK  240  A    between atoms: _540  and  _542
REMARK  241  A    between atoms: _542  and  _543
REMARK  242  A    between atoms: _542  and  _545
REMARK  243  A    between atoms: _545  and  _546
REMARK  244  A    between atoms: _551  and  _553
REMARK  245  A    between atoms: _553  and  _554
REMARK  246  A    between atoms: _553  and  _556
REMARK  247  A    between atoms: _556  and  _557
REMARK  248  A    between atoms: _560  and  _562
REMARK  249  A    between atoms: _562  and  _563
REMARK  250  A    between atoms: _562  and  _565
REMARK  251  A    between atoms: _565  and  _566
REMARK  252  A    between atoms: _571  and  _572
REMARK  253  A    between atoms: _574  and  _576
REMARK  254  A    between atoms: _576  and  _577
REMARK  255  A    between atoms: _576  and  _579
REMARK  256  A    between atoms: _579  and  _580
REMARK  257  A    between atoms: _582  and  _584
REMARK  258  A    between atoms: _584  and  _585
REMARK  259  A    between atoms: _584  and  _587
REMARK  260  A    between atoms: _587  and  _588
REMARK  261  A    between atoms: _588  and  _589
REMARK  262  A    between atoms: _591  and  _593
REMARK  263  A    between atoms: _593  and  _594
REMARK  264  A    between atoms: _593  and  _596
REMARK  265  A    between atoms: _596  and  _597
REMARK  266  A    between atoms: _597  and  _598
REMARK  267  A    between atoms: _598  and  _599
REMARK  268  A    between atoms: _599  and  _600
REMARK  269  A    between atoms: _604  and  _606
REMARK  270  A    between atoms: _606  and  _607
REMARK  271  A    between atoms: _606  and  _609
REMARK  272  A    between atoms: _612  and  _614
REMARK  273  A    between atoms: _614  and  _615
REMARK  274  A    between atoms: _614  and  _617
REMARK  275  A    between atoms: _617  and  _618
REMARK  276  A    between atoms: _621  and  _623
REMARK  277  A    between atoms: _623  and  _624
REMARK  278  A    between atoms: _623  and  _626
REMARK  279  A    between atoms: _626  and  _627
REMARK  280  A    between atoms: _630  and  _632
REMARK  281  A    between atoms: _632  and  _633
REMARK  282  A    between atoms: _632  and  _635
REMARK  283  A    between atoms: _635  and  _636
REMARK                            x       y       z     vdW  Elec       q    Type
REMARK                         _______ _______ _______ _____ _____    ______ ____
ROOT
ATOM      1  O   HOH     1     -38.053  15.099  16.246  0.00  0.00    +0.000 OA
ENDROOT
TORSDOF 0
REMARK  Name = ../refined-set-2016/2p15/2p15_pocket.pdb
REMARK  283 active torsions:
REMARK  status: ('A' for Active; 'I' for Inactive)
REMARK    1  A    between atoms: _1  and  _3
REMARK    2  A    between atoms: _3  and  _4
REMARK    3  A    between atoms: _3  and  _6
REMARK    4  A    between atoms: _6  and  _7
REMARK    5  A    between atoms: _10  and  _12
REMARK    6  A    between atoms: _12  and  _13
REMARK    7  A    between atoms: _12  and  _15
REMARK    8  A    between atoms: _15  and  _16
REMARK    9  A    between atoms: _19  and  _21
REMARK   10  A    between atoms: _21  and  _22
REMARK   11  A    between atoms: _21  and  _24
REMARK   12  A    between atoms: _24  and  _25
REMARK   13  A    between atoms: _31  and  _33
REMARK   14  A    between atoms: _33  and  _34
REMARK   15  A    between atoms: _33  and  _36
REMARK   16  A    between atoms: _36  and  _37
REMARK   17  A    between atoms: _39  and  _41
REMARK   18  A    between atoms: _41  and  _42
REMARK   19  A    between atoms: _41  and  _44
REMARK   20  A    between atoms: _44  and  _45
REMARK   21  A    between atoms: _45  and  _46
REMARK   22  A    between atoms: _49  and  _51
REMARK   23  A    between atoms: _51  and  _52
REMARK   24  A    between atoms: _51  and  _54
REMARK   25  A    between atoms: _54  and  _55
REMARK   26  A    between atoms: _55  and  _56
REMARK   27  A    between atoms: _58  and  _60
REMARK   28  A    between atoms: _60  and  _61
REMARK   29  A    between atoms: _60  and  _63
REMARK   30  A    between atoms: _63  and  _64
REMARK   31  A    between atoms: _64  and  _65
REMARK   32  A    between atoms: _67  and  _69
REMARK   33  A    between atoms: _69  and  _70
REMARK   34  A    between atoms: _69  and  _72
REMARK   35  A    between atoms: _72  and  _73
REMARK   36  A    between atoms: _76  and  _78
REMARK   37  A    between atoms: _78  and  _79
REMARK   38  A    between atoms: _78  and  _81
REMARK   39  A    between atoms: _81  and  _82
REMARK   40  A    between atoms: _85  and  _87
REMARK   41  A    between atoms: _87  and  _88
REMARK   42  A    between atoms: _87  and  _90
REMARK   43  A    between atoms: _90  and  _91
REMARK   44  A    between atoms: _94  and  _96
REMARK   45  A    between atoms: _96  and  _97
REMARK   46  A    between atoms: _96  and  _99
REMARK   47  A    between atoms: _99  and  _100
REMARK   48  A    between atoms: _105  and  _107
REMARK   49  A    between atoms: _107  and  _108
REMARK   50  A    between atoms: _107  and  _110
REMARK   51  A    between atoms: _110  and  _111
REMARK   52  A    between atoms: _114  and  _116
REMARK   53  A    between atoms: _116  and  _117
REMARK   54  A    between atoms: _120  and  _122
REMARK   55  A    between atoms: _122  and  _123
REMARK   56  A    between atoms: _122  and  _125
REMARK   57  A    between atoms: _125  and  _126
REMARK   58  A    between atoms: _129  and  _131
REMARK   59  A    between atoms: _131  and  _132
REMARK   60  A    between atoms: _131  and  _134
REMARK   61  A    between atoms: _134  and  _135
REMARK   62  A    between atoms: _135  and  _136
REMARK   63  A    between atoms: _136  and  _137
REMARK   64  A    between atoms: _146  and  _148
REMARK   65  A    between atoms: _148  and  _149
REMARK   66  A    between atoms: _148  and  _151
REMARK   67  A    between atoms: _151  and  _152
REMARK   68  A    between atoms: _152  and  _153
REMARK   69  A    between atoms: _156  and  _158
REMARK   70  A    between atoms: _158  and  _159
REMARK   71  A    between atoms: _158  and  _161
REMARK   72  A    between atoms: _161  and  _162
REMARK   73  A    between atoms: _165  and  _167
REMARK   74  A    between atoms: _167  and  _168
REMARK   75  A    between atoms: _167  and  _170
REMARK   76  A    between atoms: _170  and  _171
REMARK   77  A    between atoms: _171  and  _172
REMARK   78  A    between atoms: _174  and  _176
REMARK   79  A    between atoms: _176  and  _177
REMARK   80  A    between atoms: _176  and  _179
REMARK   81  A    between atoms: _179  and  _180
REMARK   82  A    between atoms: _190  and  _192
REMARK   83  A    between atoms: _192  and  _193
REMARK   84  A    between atoms: _192  and  _195
REMARK   85  A    between atoms: _195  and  _196
REMARK   86  A    between atoms: _199  and  _201
REMARK   87  A    between atoms: _201  and  _202
REMARK   88  A    between atoms: _201  and  _204
REMARK   89  A    between atoms: _204  and  _205
REMARK   90  A    between atoms: _205  and  _206
REMARK   91  A    between atoms: _209  and  _211
REMARK   92  A    between atoms: _211  and  _212
REMARK   93  A    between atoms: _211  and  _214
REMARK   94  A    between atoms: _214  and  _215
REMARK   95  A    between atoms: _218  and  _220
REMARK   96  A    between atoms: _220  and  _221
REMARK   97  A    between atoms: _220  and  _223
REMARK   98  A    between atoms: _223  and  _224
REMARK   99  A    between atoms: _227  and  _229
REMARK  100  A    between atoms: _229  and  _230
REMARK  101  A    between atoms: _229  and  _232
REMARK  102  A    between atoms: _232  and  _233
REMARK  103  A    between atoms: _233  and  _234
REMARK  104  A    between atoms: _236  and  _238
REMARK  105  A    between atoms: _238  and  _239
REMARK  106  A    between atoms: _238  and  _241
REMARK  107  A    between atoms: _241  and  _242
REMARK  108  A    between atoms: _245  and  _247
REMARK  109  A    between atoms: _247  and  _248
REMARK  110  A    between atoms: _250  and  _252
REMARK  111  A    between atoms: _252  and  _253
REMARK  112  A    between atoms: _252  and  _255
REMARK  113  A    between atoms: _255  and  _256
REMARK  114  A    between atoms: _259  and  _261
REMARK  115  A    between atoms: _261  and  _262
REMARK  116  A    between atoms: _261  and  _264
REMARK  117  A    between atoms: _267  and  _269
REMARK  118  A    between atoms: _269  and  _270
REMARK  119  A    between atoms: _269  and  _272
REMARK  120  A    between atoms: _272  and  _273
REMARK  121  A    between atoms: _273  and  _274
REMARK  122  A    between atoms: _274  and  _275
REMARK  123  A    between atoms: _284  and  _286
REMARK  124  A    between atoms: _286  and  _287
REMARK  125  A    between atoms: _286  and  _289
REMARK  126  A    between atoms: _289  and  _290
REMARK  127  A    between atoms: _293  and  _295
REMARK  128  A    between atoms: _295  and  _296
REMARK  129  A    between atoms: _295  and  _298
REMARK  130  A    between atoms: _298  and  _299
REMARK  131  A    between atoms: _302  and  _304
REMARK  132  A    between atoms: _304  and  _305
REMARK  133  A    between atoms: _304  and  _307
REMARK  134  A    between atoms: _307  and  _308
REMARK  135  A    between atoms: _314  and  _316
REMARK  136  A    between atoms: _316  and  _317
REMARK  137  A    between atoms: _320  and  _322
REMARK  138  A    between atoms: _322  and  _323
REMARK  139  A    between atoms: _322  and  _325
REMARK  140  A    between atoms: _325  and  _326
REMARK  141  A    between atoms: _329  and  _331
REMARK  142  A    between atoms: _331  and  _332
REMARK  143  A    between atoms: _331  and  _334
REMARK  144  A    between atoms: _334  and  _335
REMARK  145  A    between atoms: _338  and  _340
REMARK  146  A    between atoms: _340  and  _341
REMARK  147  A    between atoms: _340  and  _343
REMARK  148  A    between atoms: _343  and  _344
REMARK  149  A    between atoms: _347  and  _349
REMARK  150  A    between atoms: _349  and  _350
REMARK  151  A    between atoms: _349  and  _352
REMARK  152  A    between atoms: _352  and  _353
REMARK  153  A    between atoms: _353  and  _354
REMARK  154  A    between atoms: _359  and  _361
REMARK  155  A    between atoms: _361  and  _362
REMARK  156  A    between atoms: _361  and  _364
REMARK  157  A    between atoms: _364  and  _365
REMARK  158  A    between atoms: _365  and  _366
REMARK  159  A    between atoms: _366  and  _367
REMARK  160  A    between atoms: _367  and  _368
REMARK  161  A    between atoms: _372  and  _374
REMARK  162  A    between atoms: _374  and  _375
REMARK  163  A    between atoms: _374  and  _377
REMARK  164  A    between atoms: _379  and  _381
REMARK  165  A    between atoms: _381  and  _382
REMARK  166  A    between atoms: _381  and  _384
REMARK  167  A    between atoms: _387  and  _389
REMARK  168  A    between atoms: _389  and  _390
REMARK  169  A    between atoms: _389  and  _392
REMARK  170  A    between atoms: _392  and  _393
REMARK  171  A    between atoms: _393  and  _394
REMARK  172  A    between atoms: _397  and  _399
REMARK  173  A    between atoms: _399  and  _400
REMARK  174  A    between atoms: _402  and  _404
REMARK  175  A    between atoms: _404  and  _405
REMARK  176  A    between atoms: _404  and  _407
REMARK  177  A    between atoms: _407  and  _408
REMARK  178  A    between atoms: _408  and  _409
REMARK  179  A    between atoms: _411  and  _413
REMARK  180  A    between atoms: _413  and  _414
REMARK  181  A    between atoms: _413  and  _416
REMARK  182  A    between atoms: _419  and  _421
REMARK  183  A    between atoms: _421  and  _422
REMARK  184  A    between atoms: _421  and  _424
REMARK  185  A    between atoms: _424  and  _425
REMARK  186  A    between atoms: _425  and  _426
REMARK  187  A    between atoms: _429  and  _431
REMARK  188  A    between atoms: _431  and  _432
REMARK  189  A    between atoms: _431  and  _434
REMARK  190  A    between atoms: _434  and  _435
REMARK  191  A    between atoms: _438  and  _440
REMARK  192  A    between atoms: _440  and  _441
REMARK  193  A    between atoms: _440  and  _443
REMARK  194  A    between atoms: _443  and  _444
REMARK  195  A    between atoms: _450  and  _452
REMARK  196  A    between atoms: _452  and  _453
REMARK  197  A    between atoms: _452  and  _455
REMARK  198  A    between atoms: _455  and  _456
REMARK  199  A    between atoms: _459  and  _461
REMARK  200  A    between atoms: _461  and  _462
REMARK  201  A    between atoms: _461  and  _464
REMARK  202  A    between atoms: _464  and  _465
REMARK  203  A    between atoms: _465  and  _466
REMARK  204  A    between atoms: _468  and  _470
REMARK  205  A    between atoms: _470  and  _471
REMARK  206  A    between atoms: _470  and  _473
REMARK  207  A    between atoms: _473  and  _474
REMARK  208  A    between atoms: _477  and  _479
REMARK  209  A    between atoms: _479  and  _480
REMARK  210  A    between atoms: _479  and  _482
REMARK  211  A    between atoms: _482  and  _483
REMARK  212  A    between atoms: _486  and  _488
REMARK  213  A    between atoms: _488  and  _489
REMARK  214  A    between atoms: _488  and  _491
REMARK  215  A    between atoms: _491  and  _492
REMARK  216  A    between atoms: _492  and  _493
REMARK  217  A    between atoms: _495  and  _497
REMARK  218  A    between atoms: _497  and  _498
REMARK  219  A    between atoms: _497  and  _500
REMARK  220  A    between atoms: _500  and  _501
REMARK  221  A    between atoms: _503  and  _505
REMARK  222  A    between atoms: _505  and  _506
REMARK  223  A    between atoms: _505  and  _508
REMARK  224  A    between atoms: _508  and  _509
REMARK  225  A    between atoms: _509  and  _510
REMARK  226  A    between atoms: _510  and  _511
REMARK  227  A    between atoms: _511  and  _512
REMARK  228  A    between atoms: _516  and  _518
REMARK  229  A    between atoms: _518  and  _519
REMARK  230  A    between atoms: _521  and  _523
REMARK  231  A    between atoms: _523  and  _524
REMARK  232  A    between atoms: _523  and  _526
REMARK  233  A    between atoms: _526  and  _527
REMARK  234  A    between atoms: _527  and  _528
REMARK  235  A    between atoms: _530  and  _532
REMARK  236  A    between atoms: _532  and  _533
REMARK  237  A    between atoms: _532  and  _535
REMARK  238  A    between atoms: _535  and  _536
REMARK  239  A    between atoms: _536  and  _537
REMARK  240  A    between atoms: _540  and  _542
REMARK  241  A    between atoms: _542  and  _543
REMARK  242  A    between atoms: _542  and  _545
REMARK  243  A    between atoms: _545  and  _546
REMARK  244  A    between atoms: _551  and  _553
REMARK  245  A    between atoms: _553  and  _554
REMARK  246  A    between atoms: _553  and  _556
REMARK  247  A    between atoms: _556  and  _557
REMARK  248  A    between atoms: _560  and  _562
REMARK  249  A    between atoms: _562  and  _563
REMARK  250  A    between atoms: _562  and  _565
REMARK  251  A    between atoms: _565  and  _566
REMARK  252  A    between atoms: _571  and  _572
REMARK  253  A    between atoms: _574  and  _576
REMARK  254  A    between atoms: _576  and  _577
REMARK  255  A    between atoms: _576  and  _579
REMARK  256  A    between atoms: _579  and  _580
REMARK  257  A    between atoms: _582  and  _584
REMARK  258  A    between atoms: _584  and  _585
REMARK  259  A    between atoms: _584  and  _587
REMARK  260  A    between atoms: _587  and  _588
REMARK  261  A    between atoms: _588  and  _589
REMARK  262  A    between atoms: _591  and  _593
REMARK  263  A    between atoms: _593  and  _594
REMARK  264  A    between atoms: _593  and  _596
REMARK  265  A    between atoms: _596  and  _597
REMARK  266  A    between atoms: _597  and  _598
REMARK  267  A    between atoms: _598  and  _599
REMARK  268  A    between atoms: _599  and  _600
REMARK  269  A    between atoms: _604  and  _606
REMARK  270  A    between atoms: _606  and  _607
REMARK  271  A    between atoms: _606  and  _609
REMARK  272  A    between atoms: _612  and  _614
REMARK  273  A    between atoms: _614  and  _615
REMARK  274  A    between atoms: _614  and  _617
REMARK  275  A    between atoms: _617  and  _618
REMARK  276  A    between atoms: _621  and  _623
REMARK  277  A    between atoms: _623  and  _624
REMARK  278  A    between atoms: _623  and  _626
REMARK  279  A    between atoms: _626  and  _627
REMARK  280  A    between atoms: _630  and  _632
REMARK  281  A    between atoms: _632  and  _633
REMARK  282  A    between atoms: _632  and  _635
REMARK  283  A    between atoms: _635  and  _636
REMARK                            x       y       z     vdW  Elec       q    Type
REMARK                         _______ _______ _______ _____ _____    ______ ____
ROOT
ATOM      1  O   HOH     1     -37.995  14.337  18.629  0.00  0.00    +0.000 OA
ENDROOT
TORSDOF 0
