REMARK  Name = ../refined-set-2016/1s19/1s19_pocket.pdb
REMARK  277 active torsions:
REMARK  status: ('A' for Active; 'I' for Inactive)
REMARK    1  A    between atoms: _1  and  _3
REMARK    2  A    between atoms: _3  and  _4
REMARK    3  A    between atoms: _3  and  _6
REMARK    4  A    between atoms: _6  and  _7
REMARK    5  A    between atoms: _10  and  _12
REMARK    6  A    between atoms: _12  and  _13
REMARK    7  A    between atoms: _12  and  _15
REMARK    8  A    between atoms: _15  and  _16
REMARK    9  A    between atoms: _21  and  _22
REMARK   10  A    between atoms: _24  and  _26
REMARK   11  A    between atoms: _26  and  _27
REMARK   12  A    between atoms: _26  and  _29
REMARK   13  A    between atoms: _29  and  _30
REMARK   14  A    between atoms: _33  and  _35
REMARK   15  A    between atoms: _35  and  _36
REMARK   16  A    between atoms: _35  and  _38
REMARK   17  A    between atoms: _38  and  _39
REMARK   18  A    between atoms: _44  and  _45
REMARK   19  A    between atoms: _47  and  _49
REMARK   20  A    between atoms: _49  and  _50
REMARK   21  A    between atoms: _49  and  _52
REMARK   22  A    between atoms: _52  and  _53
REMARK   23  A    between atoms: _59  and  _61
REMARK   24  A    between atoms: _61  and  _62
REMARK   25  A    between atoms: _61  and  _64
REMARK   26  A    between atoms: _64  and  _65
REMARK   27  A    between atoms: _71  and  _73
REMARK   28  A    between atoms: _73  and  _74
REMARK   29  A    between atoms: _73  and  _76
REMARK   30  A    between atoms: _76  and  _77
REMARK   31  A    between atoms: _77  and  _78
REMARK   32  A    between atoms: _78  and  _79
REMARK   33  A    between atoms: _88  and  _90
REMARK   34  A    between atoms: _90  and  _91
REMARK   35  A    between atoms: _90  and  _93
REMARK   36  A    between atoms: _93  and  _94
REMARK   37  A    between atoms: _94  and  _95
REMARK   38  A    between atoms: _97  and  _99
REMARK   39  A    between atoms: _99  and  _100
REMARK   40  A    between atoms: _99  and  _102
REMARK   41  A    between atoms: _102  and  _103
REMARK   42  A    between atoms: _107  and  _108
REMARK   43  A    between atoms: _113  and  _115
REMARK   44  A    between atoms: _115  and  _116
REMARK   45  A    between atoms: _115  and  _118
REMARK   46  A    between atoms: _118  and  _119
REMARK   47  A    between atoms: _124  and  _126
REMARK   48  A    between atoms: _126  and  _127
REMARK   49  A    between atoms: _126  and  _129
REMARK   50  A    between atoms: _129  and  _130
REMARK   51  A    between atoms: _133  and  _135
REMARK   52  A    between atoms: _135  and  _136
REMARK   53  A    between atoms: _139  and  _141
REMARK   54  A    between atoms: _141  and  _142
REMARK   55  A    between atoms: _141  and  _144
REMARK   56  A    between atoms: _144  and  _145
REMARK   57  A    between atoms: _148  and  _150
REMARK   58  A    between atoms: _150  and  _151
REMARK   59  A    between atoms: _150  and  _153
REMARK   60  A    between atoms: _153  and  _154
REMARK   61  A    between atoms: _157  and  _159
REMARK   62  A    between atoms: _159  and  _160
REMARK   63  A    between atoms: _159  and  _162
REMARK   64  A    between atoms: _165  and  _167
REMARK   65  A    between atoms: _167  and  _168
REMARK   66  A    between atoms: _167  and  _170
REMARK   67  A    between atoms: _170  and  _171
REMARK   68  A    between atoms: _173  and  _175
REMARK   69  A    between atoms: _175  and  _176
REMARK   70  A    between atoms: _175  and  _178
REMARK   71  A    between atoms: _178  and  _179
REMARK   72  A    between atoms: _184  and  _185
REMARK   73  A    between atoms: _187  and  _189
REMARK   74  A    between atoms: _189  and  _190
REMARK   75  A    between atoms: _189  and  _192
REMARK   76  A    between atoms: _192  and  _193
REMARK   77  A    between atoms: _195  and  _197
REMARK   78  A    between atoms: _197  and  _198
REMARK   79  A    between atoms: _197  and  _200
REMARK   80  A    between atoms: _200  and  _201
REMARK   81  A    between atoms: _204  and  _206
REMARK   82  A    between atoms: _206  and  _207
REMARK   83  A    between atoms: _206  and  _209
REMARK   84  A    between atoms: _209  and  _210
REMARK   85  A    between atoms: _210  and  _211
REMARK   86  A    between atoms: _211  and  _212
REMARK   87  A    between atoms: _212  and  _213
REMARK   88  A    between atoms: _217  and  _219
REMARK   89  A    between atoms: _219  and  _220
REMARK   90  A    between atoms: _219  and  _222
REMARK   91  A    between atoms: _225  and  _227
REMARK   92  A    between atoms: _227  and  _228
REMARK   93  A    between atoms: _231  and  _233
REMARK   94  A    between atoms: _233  and  _234
REMARK   95  A    between atoms: _233  and  _236
REMARK   96  A    between atoms: _236  and  _237
REMARK   97  A    between atoms: _240  and  _242
REMARK   98  A    between atoms: _242  and  _243
REMARK   99  A    between atoms: _242  and  _245
REMARK  100  A    between atoms: _245  and  _246
REMARK  101  A    between atoms: _246  and  _247
REMARK  102  A    between atoms: _250  and  _252
REMARK  103  A    between atoms: _252  and  _253
REMARK  104  A    between atoms: _252  and  _255
REMARK  105  A    between atoms: _258  and  _260
REMARK  106  A    between atoms: _260  and  _261
REMARK  107  A    between atoms: _260  and  _263
REMARK  108  A    between atoms: _263  and  _264
REMARK  109  A    between atoms: _267  and  _269
REMARK  110  A    between atoms: _269  and  _270
REMARK  111  A    between atoms: _269  and  _272
REMARK  112  A    between atoms: _272  and  _273
REMARK  113  A    between atoms: _273  and  _274
REMARK  114  A    between atoms: _276  and  _278
REMARK  115  A    between atoms: _278  and  _279
REMARK  116  A    between atoms: _278  and  _281
REMARK  117  A    between atoms: _281  and  _282
REMARK  118  A    between atoms: _285  and  _287
REMARK  119  A    between atoms: _287  and  _288
REMARK  120  A    between atoms: _287  and  _290
REMARK  121  A    between atoms: _290  and  _291
REMARK  122  A    between atoms: _291  and  _292
REMARK  123  A    between atoms: _292  and  _293
REMARK  124  A    between atoms: _302  and  _304
REMARK  125  A    between atoms: _304  and  _305
REMARK  126  A    between atoms: _304  and  _307
REMARK  127  A    between atoms: _307  and  _308
REMARK  128  A    between atoms: _310  and  _312
REMARK  129  A    between atoms: _312  and  _313
REMARK  130  A    between atoms: _312  and  _315
REMARK  131  A    between atoms: _315  and  _316
REMARK  132  A    between atoms: _321  and  _323
REMARK  133  A    between atoms: _323  and  _324
REMARK  134  A    between atoms: _323  and  _326
REMARK  135  A    between atoms: _326  and  _327
REMARK  136  A    between atoms: _327  and  _328
REMARK  137  A    between atoms: _331  and  _333
REMARK  138  A    between atoms: _333  and  _334
REMARK  139  A    between atoms: _333  and  _336
REMARK  140  A    between atoms: _336  and  _337
REMARK  141  A    between atoms: _339  and  _341
REMARK  142  A    between atoms: _341  and  _342
REMARK  143  A    between atoms: _341  and  _344
REMARK  144  A    between atoms: _344  and  _345
REMARK  145  A    between atoms: _351  and  _353
REMARK  146  A    between atoms: _353  and  _354
REMARK  147  A    between atoms: _353  and  _356
REMARK  148  A    between atoms: _356  and  _357
REMARK  149  A    between atoms: _359  and  _361
REMARK  150  A    between atoms: _361  and  _362
REMARK  151  A    between atoms: _361  and  _364
REMARK  152  A    between atoms: _364  and  _365
REMARK  153  A    between atoms: _375  and  _377
REMARK  154  A    between atoms: _377  and  _378
REMARK  155  A    between atoms: _377  and  _380
REMARK  156  A    between atoms: _380  and  _381
REMARK  157  A    between atoms: _384  and  _386
REMARK  158  A    between atoms: _386  and  _387
REMARK  159  A    between atoms: _386  and  _389
REMARK  160  A    between atoms: _391  and  _393
REMARK  161  A    between atoms: _393  and  _394
REMARK  162  A    between atoms: _393  and  _396
REMARK  163  A    between atoms: _396  and  _397
REMARK  164  A    between atoms: _402  and  _403
REMARK  165  A    between atoms: _405  and  _407
REMARK  166  A    between atoms: _407  and  _408
REMARK  167  A    between atoms: _407  and  _410
REMARK  168  A    between atoms: _410  and  _411
REMARK  169  A    between atoms: _411  and  _412
REMARK  170  A    between atoms: _412  and  _413
REMARK  171  A    between atoms: _413  and  _414
REMARK  172  A    between atoms: _418  and  _420
REMARK  173  A    between atoms: _420  and  _421
REMARK  174  A    between atoms: _420  and  _423
REMARK  175  A    between atoms: _423  and  _424
REMARK  176  A    between atoms: _429  and  _430
REMARK  177  A    between atoms: _432  and  _434
REMARK  178  A    between atoms: _434  and  _435
REMARK  179  A    between atoms: _434  and  _437
REMARK  180  A    between atoms: _437  and  _438
REMARK  181  A    between atoms: _438  and  _439
REMARK  182  A    between atoms: _439  and  _440
REMARK  183  A    between atoms: _449  and  _451
REMARK  184  A    between atoms: _451  and  _452
REMARK  185  A    between atoms: _451  and  _454
REMARK  186  A    between atoms: _457  and  _459
REMARK  187  A    between atoms: _459  and  _460
REMARK  188  A    between atoms: _459  and  _462
REMARK  189  A    between atoms: _462  and  _463
REMARK  190  A    between atoms: _466  and  _468
REMARK  191  A    between atoms: _468  and  _469
REMARK  192  A    between atoms: _468  and  _471
REMARK  193  A    between atoms: _474  and  _476
REMARK  194  A    between atoms: _476  and  _477
REMARK  195  A    between atoms: _476  and  _479
REMARK  196  A    between atoms: _479  and  _480
REMARK  197  A    between atoms: _483  and  _485
REMARK  198  A    between atoms: _485  and  _486
REMARK  199  A    between atoms: _489  and  _491
REMARK  200  A    between atoms: _491  and  _492
REMARK  201  A    between atoms: _494  and  _496
REMARK  202  A    between atoms: _496  and  _497
REMARK  203  A    between atoms: _496  and  _499
REMARK  204  A    between atoms: _499  and  _500
REMARK  205  A    between atoms: _505  and  _507
REMARK  206  A    between atoms: _507  and  _508
REMARK  207  A    between atoms: _507  and  _510
REMARK  208  A    between atoms: _510  and  _511
REMARK  209  A    between atoms: _513  and  _515
REMARK  210  A    between atoms: _515  and  _516
REMARK  211  A    between atoms: _515  and  _518
REMARK  212  A    between atoms: _518  and  _519
REMARK  213  A    between atoms: _522  and  _524
REMARK  214  A    between atoms: _524  and  _525
REMARK  215  A    between atoms: _524  and  _527
REMARK  216  A    between atoms: _527  and  _528
REMARK  217  A    between atoms: _531  and  _533
REMARK  218  A    between atoms: _533  and  _534
REMARK  219  A    between atoms: _533  and  _536
REMARK  220  A    between atoms: _536  and  _537
REMARK  221  A    between atoms: _540  and  _542
REMARK  222  A    between atoms: _542  and  _543
REMARK  223  A    between atoms: _542  and  _545
REMARK  224  A    between atoms: _545  and  _546
REMARK  225  A    between atoms: _549  and  _551
REMARK  226  A    between atoms: _551  and  _552
REMARK  227  A    between atoms: _551  and  _554
REMARK  228  A    between atoms: _554  and  _555
REMARK  229  A    between atoms: _555  and  _556
REMARK  230  A    between atoms: _561  and  _563
REMARK  231  A    between atoms: _563  and  _564
REMARK  232  A    between atoms: _563  and  _566
REMARK  233  A    between atoms: _566  and  _567
REMARK  234  A    between atoms: _570  and  _572
REMARK  235  A    between atoms: _572  and  _573
REMARK  236  A    between atoms: _572  and  _575
REMARK  237  A    between atoms: _575  and  _576
REMARK  238  A    between atoms: _581  and  _583
REMARK  239  A    between atoms: _583  and  _584
REMARK  240  A    between atoms: _583  and  _586
REMARK  241  A    between atoms: _586  and  _587
REMARK  242  A    between atoms: _589  and  _591
REMARK  243  A    between atoms: _591  and  _592
REMARK  244  A    between atoms: _591  and  _594
REMARK  245  A    between atoms: _594  and  _595
REMARK  246  A    between atoms: _595  and  _596
REMARK  247  A    between atoms: _601  and  _603
REMARK  248  A    between atoms: _603  and  _604
REMARK  249  A    between atoms: _603  and  _606
REMARK  250  A    between atoms: _606  and  _607
REMARK  251  A    between atoms: _612  and  _613
REMARK  252  A    between atoms: _615  and  _617
REMARK  253  A    between atoms: _617  and  _618
REMARK  254  A    between atoms: _617  and  _620
REMARK  255  A    between atoms: _620  and  _621
REMARK  256  A    between atoms: _624  and  _626
REMARK  257  A    between atoms: _626  and  _627
REMARK  258  A    between atoms: _626  and  _629
REMARK  259  A    between atoms: _629  and  _630
REMARK  260  A    between atoms: _630  and  _631
REMARK  261  A    between atoms: _631  and  _632
REMARK  262  A    between atoms: _632  and  _633
REMARK  263  A    between atoms: _637  and  _639
REMARK  264  A    between atoms: _639  and  _640
REMARK  265  A    between atoms: _639  and  _642
REMARK  266  A    between atoms: _642  and  _643
REMARK  267  A    between atoms: _646  and  _648
REMARK  268  A    between atoms: _648  and  _649
REMARK  269  A    between atoms: _648  and  _651
REMARK  270  A    between atoms: _651  and  _652
REMARK  271  A    between atoms: _655  and  _657
REMARK  272  A    between atoms: _657  and  _658
REMARK  273  A    between atoms: _657  and  _660
REMARK  274  A    between atoms: _663  and  _665
REMARK  275  A    between atoms: _665  and  _666
REMARK  276  A    between atoms: _665  and  _668
REMARK  277  A    between atoms: _668  and  _669
REMARK                            x       y       z     vdW  Elec       q    Type
REMARK                         _______ _______ _______ _____ _____    ______ ____
ROOT
ATOM      1  CA  TYR A   2      16.371  10.609  37.644  0.00  0.00    +0.153 C 
ENDROOT
BRANCH   1   3
ATOM      2  C   THR A   1      14.440   9.593  38.703  0.00  0.00    +0.241 C 
ATOM      3  N   TYR A   2      15.742   9.570  38.453  0.00  0.00    -0.297 N 
ATOM      4  H   TYR A   2      16.324   8.800  38.839  0.00  0.00    +0.150 HD
ATOM      5  O   THR A   1      13.707  10.496  38.304  0.00  0.00    -0.274 OA
BRANCH   2   6
ATOM      6  CA  THR A   1      13.868   8.443  39.533  0.00  0.00    +0.172 C 
BRANCH   6   7
ATOM      7  N   THR A   1      14.828   7.422  39.961  0.00  0.00    -0.236 NA
ATOM      8  H   THR A   1      15.607   7.687  40.597  0.00  0.00    +0.142 HD
ENDBRANCH   6   7
BRANCH   6   9
ATOM      9  CB  THR A   1      13.120   9.043  40.755  0.00  0.00    +0.135 C 
ATOM     10  CG2 THR A   1      12.248   7.979  41.420  0.00  0.00    +0.034 C 
BRANCH   9  11
ATOM     11  OG1 THR A   1      14.067   9.543  41.708  0.00  0.00    -0.383 OA
ATOM     12  HG1 THR A   1      14.650   8.803  42.012  0.00  0.00    +0.210 HD
ENDBRANCH   9  11
ENDBRANCH   6   9
ENDBRANCH   2   6
ENDBRANCH   1   3
BRANCH   1  13
ATOM     13  C   TYR A   2      17.230   9.962  36.565  0.00  0.00    +0.241 C 
ATOM     14  O   TYR A   2      18.302   9.440  36.847  0.00  0.00    -0.273 OA
ATOM     15  N   ASP A   3      16.740  10.001  35.330  0.00  0.00    -0.298 N 
ATOM     16  H   ASP A   3      15.819  10.459  35.174  0.00  0.00    +0.150 HD
BRANCH  15  17
ATOM     17  CA  ASP A   3      17.438   9.430  34.185  0.00  0.00    +0.148 C 
BRANCH  17  18
ATOM     18  C   ASP A   3      18.424  10.457  33.624  0.00  0.00    +0.227 C 
ATOM     19  O   ASP A   3      18.027  11.427  32.983  0.00  0.00    -0.286 OA
ENDBRANCH  17  18
BRANCH  17  20
ATOM     20  CB  ASP A   3      16.413   9.024  33.116  0.00  0.00    +0.142 C 
BRANCH  20  21
ATOM     21  CG  ASP A   3      17.056   8.563  31.827  0.00  0.00    +0.367 C 
ATOM     22  OD2 ASP A   3      18.294   8.391  31.793  0.00  0.00    -0.246 OA
ATOM     23  OD1 ASP A   3      16.314   8.371  30.842  0.00  0.00    -0.246 OA
ENDBRANCH  20  21
ENDBRANCH  17  20
ENDBRANCH  15  17
ENDBRANCH   1  13
BRANCH   1  24
ATOM     24  CB  TYR A   2      17.237  11.542  38.509  0.00  0.00    +0.055 C 
BRANCH  24  25
ATOM     25  CG  TYR A   2      17.717  12.779  37.765  0.00  0.00    -0.020 A 
ATOM     26  CD2 TYR A   2      17.098  14.019  37.964  0.00  0.00    -0.001 A 
ATOM     27  CE2 TYR A   2      17.485  15.147  37.236  0.00  0.00    +0.036 A 
ATOM     28  CZ  TYR A   2      18.500  15.048  36.299  0.00  0.00    +0.134 A 
ATOM     29  CE1 TYR A   2      19.138  13.836  36.084  0.00  0.00    +0.036 A 
ATOM     30  CD1 TYR A   2      18.744  12.705  36.819  0.00  0.00    -0.001 A 
BRANCH  28  31
ATOM     31  OH  TYR A   2      18.843  16.156  35.558  0.00  0.00    -0.506 OA
ATOM     32  HH  TYR A   2      19.579  15.922  34.939  0.00  0.00    +0.292 HD
ENDBRANCH  28  31
ENDBRANCH  24  25
ENDBRANCH   1  24
TORSDOF 13
REMARK  Name = ../refined-set-2016/1s19/1s19_pocket.pdb
REMARK  277 active torsions:
REMARK  status: ('A' for Active; 'I' for Inactive)
REMARK    1  A    between atoms: _1  and  _3
REMARK    2  A    between atoms: _3  and  _4
REMARK    3  A    between atoms: _3  and  _6
REMARK    4  A    between atoms: _6  and  _7
REMARK    5  A    between atoms: _10  and  _12
REMARK    6  A    between atoms: _12  and  _13
REMARK    7  A    between atoms: _12  and  _15
REMARK    8  A    between atoms: _15  and  _16
REMARK    9  A    between atoms: _21  and  _22
REMARK   10  A    between atoms: _24  and  _26
REMARK   11  A    between atoms: _26  and  _27
REMARK   12  A    between atoms: _26  and  _29
REMARK   13  A    between atoms: _29  and  _30
REMARK   14  A    between atoms: _33  and  _35
REMARK   15  A    between atoms: _35  and  _36
REMARK   16  A    between atoms: _35  and  _38
REMARK   17  A    between atoms: _38  and  _39
REMARK   18  A    between atoms: _44  and  _45
REMARK   19  A    between atoms: _47  and  _49
REMARK   20  A    between atoms: _49  and  _50
REMARK   21  A    between atoms: _49  and  _52
REMARK   22  A    between atoms: _52  and  _53
REMARK   23  A    between atoms: _59  and  _61
REMARK   24  A    between atoms: _61  and  _62
REMARK   25  A    between atoms: _61  and  _64
REMARK   26  A    between atoms: _64  and  _65
REMARK   27  A    between atoms: _71  and  _73
REMARK   28  A    between atoms: _73  and  _74
REMARK   29  A    between atoms: _73  and  _76
REMARK   30  A    between atoms: _76  and  _77
REMARK   31  A    between atoms: _77  and  _78
REMARK   32  A    between atoms: _78  and  _79
REMARK   33  A    between atoms: _88  and  _90
REMARK   34  A    between atoms: _90  and  _91
REMARK   35  A    between atoms: _90  and  _93
REMARK   36  A    between atoms: _93  and  _94
REMARK   37  A    between atoms: _94  and  _95
REMARK   38  A    between atoms: _97  and  _99
REMARK   39  A    between atoms: _99  and  _100
REMARK   40  A    between atoms: _99  and  _102
REMARK   41  A    between atoms: _102  and  _103
REMARK   42  A    between atoms: _107  and  _108
REMARK   43  A    between atoms: _113  and  _115
REMARK   44  A    between atoms: _115  and  _116
REMARK   45  A    between atoms: _115  and  _118
REMARK   46  A    between atoms: _118  and  _119
REMARK   47  A    between atoms: _124  and  _126
REMARK   48  A    between atoms: _126  and  _127
REMARK   49  A    between atoms: _126  and  _129
REMARK   50  A    between atoms: _129  and  _130
REMARK   51  A    between atoms: _133  and  _135
REMARK   52  A    between atoms: _135  and  _136
REMARK   53  A    between atoms: _139  and  _141
REMARK   54  A    between atoms: _141  and  _142
REMARK   55  A    between atoms: _141  and  _144
REMARK   56  A    between atoms: _144  and  _145
REMARK   57  A    between atoms: _148  and  _150
REMARK   58  A    between atoms: _150  and  _151
REMARK   59  A    between atoms: _150  and  _153
REMARK   60  A    between atoms: _153  and  _154
REMARK   61  A    between atoms: _157  and  _159
REMARK   62  A    between atoms: _159  and  _160
REMARK   63  A    between atoms: _159  and  _162
REMARK   64  A    between atoms: _165  and  _167
REMARK   65  A    between atoms: _167  and  _168
REMARK   66  A    between atoms: _167  and  _170
REMARK   67  A    between atoms: _170  and  _171
REMARK   68  A    between atoms: _173  and  _175
REMARK   69  A    between atoms: _175  and  _176
REMARK   70  A    between atoms: _175  and  _178
REMARK   71  A    between atoms: _178  and  _179
REMARK   72  A    between atoms: _184  and  _185
REMARK   73  A    between atoms: _187  and  _189
REMARK   74  A    between atoms: _189  and  _190
REMARK   75  A    between atoms: _189  and  _192
REMARK   76  A    between atoms: _192  and  _193
REMARK   77  A    between atoms: _195  and  _197
REMARK   78  A    between atoms: _197  and  _198
REMARK   79  A    between atoms: _197  and  _200
REMARK   80  A    between atoms: _200  and  _201
REMARK   81  A    between atoms: _204  and  _206
REMARK   82  A    between atoms: _206  and  _207
REMARK   83  A    between atoms: _206  and  _209
REMARK   84  A    between atoms: _209  and  _210
REMARK   85  A    between atoms: _210  and  _211
REMARK   86  A    between atoms: _211  and  _212
REMARK   87  A    between atoms: _212  and  _213
REMARK   88  A    between atoms: _217  and  _219
REMARK   89  A    between atoms: _219  and  _220
REMARK   90  A    between atoms: _219  and  _222
REMARK   91  A    between atoms: _225  and  _227
REMARK   92  A    between atoms: _227  and  _228
REMARK   93  A    between atoms: _231  and  _233
REMARK   94  A    between atoms: _233  and  _234
REMARK   95  A    between atoms: _233  and  _236
REMARK   96  A    between atoms: _236  and  _237
REMARK   97  A    between atoms: _240  and  _242
REMARK   98  A    between atoms: _242  and  _243
REMARK   99  A    between atoms: _242  and  _245
REMARK  100  A    between atoms: _245  and  _246
REMARK  101  A    between atoms: _246  and  _247
REMARK  102  A    between atoms: _250  and  _252
REMARK  103  A    between atoms: _252  and  _253
REMARK  104  A    between atoms: _252  and  _255
REMARK  105  A    between atoms: _258  and  _260
REMARK  106  A    between atoms: _260  and  _261
REMARK  107  A    between atoms: _260  and  _263
REMARK  108  A    between atoms: _263  and  _264
REMARK  109  A    between atoms: _267  and  _269
REMARK  110  A    between atoms: _269  and  _270
REMARK  111  A    between atoms: _269  and  _272
REMARK  112  A    between atoms: _272  and  _273
REMARK  113  A    between atoms: _273  and  _274
REMARK  114  A    between atoms: _276  and  _278
REMARK  115  A    between atoms: _278  and  _279
REMARK  116  A    between atoms: _278  and  _281
REMARK  117  A    between atoms: _281  and  _282
REMARK  118  A    between atoms: _285  and  _287
REMARK  119  A    between atoms: _287  and  _288
REMARK  120  A    between atoms: _287  and  _290
REMARK  121  A    between atoms: _290  and  _291
REMARK  122  A    between atoms: _291  and  _292
REMARK  123  A    between atoms: _292  and  _293
REMARK  124  A    between atoms: _302  and  _304
REMARK  125  A    between atoms: _304  and  _305
REMARK  126  A    between atoms: _304  and  _307
REMARK  127  A    between atoms: _307  and  _308
REMARK  128  A    between atoms: _310  and  _312
REMARK  129  A    between atoms: _312  and  _313
REMARK  130  A    between atoms: _312  and  _315
REMARK  131  A    between atoms: _315  and  _316
REMARK  132  A    between atoms: _321  and  _323
REMARK  133  A    between atoms: _323  and  _324
REMARK  134  A    between atoms: _323  and  _326
REMARK  135  A    between atoms: _326  and  _327
REMARK  136  A    between atoms: _327  and  _328
REMARK  137  A    between atoms: _331  and  _333
REMARK  138  A    between atoms: _333  and  _334
REMARK  139  A    between atoms: _333  and  _336
REMARK  140  A    between atoms: _336  and  _337
REMARK  141  A    between atoms: _339  and  _341
REMARK  142  A    between atoms: _341  and  _342
REMARK  143  A    between atoms: _341  and  _344
REMARK  144  A    between atoms: _344  and  _345
REMARK  145  A    between atoms: _351  and  _353
REMARK  146  A    between atoms: _353  and  _354
REMARK  147  A    between atoms: _353  and  _356
REMARK  148  A    between atoms: _356  and  _357
REMARK  149  A    between atoms: _359  and  _361
REMARK  150  A    between atoms: _361  and  _362
REMARK  151  A    between atoms: _361  and  _364
REMARK  152  A    between atoms: _364  and  _365
REMARK  153  A    between atoms: _375  and  _377
REMARK  154  A    between atoms: _377  and  _378
REMARK  155  A    between atoms: _377  and  _380
REMARK  156  A    between atoms: _380  and  _381
REMARK  157  A    between atoms: _384  and  _386
REMARK  158  A    between atoms: _386  and  _387
REMARK  159  A    between atoms: _386  and  _389
REMARK  160  A    between atoms: _391  and  _393
REMARK  161  A    between atoms: _393  and  _394
REMARK  162  A    between atoms: _393  and  _396
REMARK  163  A    between atoms: _396  and  _397
REMARK  164  A    between atoms: _402  and  _403
REMARK  165  A    between atoms: _405  and  _407
REMARK  166  A    between atoms: _407  and  _408
REMARK  167  A    between atoms: _407  and  _410
REMARK  168  A    between atoms: _410  and  _411
REMARK  169  A    between atoms: _411  and  _412
REMARK  170  A    between atoms: _412  and  _413
REMARK  171  A    between atoms: _413  and  _414
REMARK  172  A    between atoms: _418  and  _420
REMARK  173  A    between atoms: _420  and  _421
REMARK  174  A    between atoms: _420  and  _423
REMARK  175  A    between atoms: _423  and  _424
REMARK  176  A    between atoms: _429  and  _430
REMARK  177  A    between atoms: _432  and  _434
REMARK  178  A    between atoms: _434  and  _435
REMARK  179  A    between atoms: _434  and  _437
REMARK  180  A    between atoms: _437  and  _438
REMARK  181  A    between atoms: _438  and  _439
REMARK  182  A    between atoms: _439  and  _440
REMARK  183  A    between atoms: _449  and  _451
REMARK  184  A    between atoms: _451  and  _452
REMARK  185  A    between atoms: _451  and  _454
REMARK  186  A    between atoms: _457  and  _459
REMARK  187  A    between atoms: _459  and  _460
REMARK  188  A    between atoms: _459  and  _462
REMARK  189  A    between atoms: _462  and  _463
REMARK  190  A    between atoms: _466  and  _468
REMARK  191  A    between atoms: _468  and  _469
REMARK  192  A    between atoms: _468  and  _471
REMARK  193  A    between atoms: _474  and  _476
REMARK  194  A    between atoms: _476  and  _477
REMARK  195  A    between atoms: _476  and  _479
REMARK  196  A    between atoms: _479  and  _480
REMARK  197  A    between atoms: _483  and  _485
REMARK  198  A    between atoms: _485  and  _486
REMARK  199  A    between atoms: _489  and  _491
REMARK  200  A    between atoms: _491  and  _492
REMARK  201  A    between atoms: _494  and  _496
REMARK  202  A    between atoms: _496  and  _497
REMARK  203  A    between atoms: _496  and  _499
REMARK  204  A    between atoms: _499  and  _500
REMARK  205  A    between atoms: _505  and  _507
REMARK  206  A    between atoms: _507  and  _508
REMARK  207  A    between atoms: _507  and  _510
REMARK  208  A    between atoms: _510  and  _511
REMARK  209  A    between atoms: _513  and  _515
REMARK  210  A    between atoms: _515  and  _516
REMARK  211  A    between atoms: _515  and  _518
REMARK  212  A    between atoms: _518  and  _519
REMARK  213  A    between atoms: _522  and  _524
REMARK  214  A    between atoms: _524  and  _525
REMARK  215  A    between atoms: _524  and  _527
REMARK  216  A    between atoms: _527  and  _528
REMARK  217  A    between atoms: _531  and  _533
REMARK  218  A    between atoms: _533  and  _534
REMARK  219  A    between atoms: _533  and  _536
REMARK  220  A    between atoms: _536  and  _537
REMARK  221  A    between atoms: _540  and  _542
REMARK  222  A    between atoms: _542  and  _543
REMARK  223  A    between atoms: _542  and  _545
REMARK  224  A    between atoms: _545  and  _546
REMARK  225  A    between atoms: _549  and  _551
REMARK  226  A    between atoms: _551  and  _552
REMARK  227  A    between atoms: _551  and  _554
REMARK  228  A    between atoms: _554  and  _555
REMARK  229  A    between atoms: _555  and  _556
REMARK  230  A    between atoms: _561  and  _563
REMARK  231  A    between atoms: _563  and  _564
REMARK  232  A    between atoms: _563  and  _566
REMARK  233  A    between atoms: _566  and  _567
REMARK  234  A    between atoms: _570  and  _572
REMARK  235  A    between atoms: _572  and  _573
REMARK  236  A    between atoms: _572  and  _575
REMARK  237  A    between atoms: _575  and  _576
REMARK  238  A    between atoms: _581  and  _583
REMARK  239  A    between atoms: _583  and  _584
REMARK  240  A    between atoms: _583  and  _586
REMARK  241  A    between atoms: _586  and  _587
REMARK  242  A    between atoms: _589  and  _591
REMARK  243  A    between atoms: _591  and  _592
REMARK  244  A    between atoms: _591  and  _594
REMARK  245  A    between atoms: _594  and  _595
REMARK  246  A    between atoms: _595  and  _596
REMARK  247  A    between atoms: _601  and  _603
REMARK  248  A    between atoms: _603  and  _604
REMARK  249  A    between atoms: _603  and  _606
REMARK  250  A    between atoms: _606  and  _607
REMARK  251  A    between atoms: _612  and  _613
REMARK  252  A    between atoms: _615  and  _617
REMARK  253  A    between atoms: _617  and  _618
REMARK  254  A    between atoms: _617  and  _620
REMARK  255  A    between atoms: _620  and  _621
REMARK  256  A    between atoms: _624  and  _626
REMARK  257  A    between atoms: _626  and  _627
REMARK  258  A    between atoms: _626  and  _629
REMARK  259  A    between atoms: _629  and  _630
REMARK  260  A    between atoms: _630  and  _631
REMARK  261  A    between atoms: _631  and  _632
REMARK  262  A    between atoms: _632  and  _633
REMARK  263  A    between atoms: _637  and  _639
REMARK  264  A    between atoms: _639  and  _640
REMARK  265  A    between atoms: _639  and  _642
REMARK  266  A    between atoms: _642  and  _643
REMARK  267  A    between atoms: _646  and  _648
REMARK  268  A    between atoms: _648  and  _649
REMARK  269  A    between atoms: _648  and  _651
REMARK  270  A    between atoms: _651  and  _652
REMARK  271  A    between atoms: _655  and  _657
REMARK  272  A    between atoms: _657  and  _658
REMARK  273  A    between atoms: _657  and  _660
REMARK  274  A    between atoms: _663  and  _665
REMARK  275  A    between atoms: _665  and  _666
REMARK  276  A    between atoms: _665  and  _668
REMARK  277  A    between atoms: _668  and  _669
REMARK                            x       y       z     vdW  Elec       q    Type
REMARK                         _______ _______ _______ _____ _____    ______ ____
ROOT
ATOM      1  CG  TYR A   1      18.196  14.122  30.047  0.00  0.00    -0.020 A 
ATOM      2  CD2 TYR A   1      17.611  14.400  31.276  0.00  0.00    -0.001 A 
ATOM      3  CE2 TYR A   1      18.344  14.959  32.315  0.00  0.00    +0.036 A 
ATOM      4  CZ  TYR A   1      19.677  15.246  32.133  0.00  0.00    +0.134 A 
ATOM      5  CE1 TYR A   1      20.291  14.988  30.917  0.00  0.00    +0.036 A 
ATOM      6  CD1 TYR A   1      19.545  14.428  29.878  0.00  0.00    -0.001 A 
ENDROOT
BRANCH   4   7
ATOM      7  OH  TYR A   1      20.392  15.776  33.181  0.00  0.00    -0.506 OA
ATOM      8  HH  TYR A   1      21.328  15.927  32.897  0.00  0.00    +0.292 HD
ENDBRANCH   4   7
BRANCH   1   9
ATOM      9  CB  TYR A   1      17.408  13.418  28.962  0.00  0.00    +0.051 C 
BRANCH   9  10
ATOM     10  CA  TYR A   1      16.997  11.994  29.371  0.00  0.00    +0.137 C 
BRANCH  10  11
ATOM     11  N   TYR A   1      18.170  11.282  29.867  0.00  0.00    -0.239 NA
ATOM     12  H   TYR A   1      18.215  11.014  30.871  0.00  0.00    +0.142 HD
ENDBRANCH  10  11
BRANCH  10  13
ATOM     13  C   TYR A   1      16.349  11.272  28.190  0.00  0.00    +0.224 C 
ATOM     14  O   TYR A   1      15.794  11.907  27.299  0.00  0.00    -0.287 OA
ENDBRANCH  10  13
ENDBRANCH   9  10
ENDBRANCH   1   9
TORSDOF 5
REMARK  Name = ../refined-set-2016/1s19/1s19_pocket.pdb
REMARK  277 active torsions:
REMARK  status: ('A' for Active; 'I' for Inactive)
REMARK    1  A    between atoms: _1  and  _3
REMARK    2  A    between atoms: _3  and  _4
REMARK    3  A    between atoms: _3  and  _6
REMARK    4  A    between atoms: _6  and  _7
REMARK    5  A    between atoms: _10  and  _12
REMARK    6  A    between atoms: _12  and  _13
REMARK    7  A    between atoms: _12  and  _15
REMARK    8  A    between atoms: _15  and  _16
REMARK    9  A    between atoms: _21  and  _22
REMARK   10  A    between atoms: _24  and  _26
REMARK   11  A    between atoms: _26  and  _27
REMARK   12  A    between atoms: _26  and  _29
REMARK   13  A    between atoms: _29  and  _30
REMARK   14  A    between atoms: _33  and  _35
REMARK   15  A    between atoms: _35  and  _36
REMARK   16  A    between atoms: _35  and  _38
REMARK   17  A    between atoms: _38  and  _39
REMARK   18  A    between atoms: _44  and  _45
REMARK   19  A    between atoms: _47  and  _49
REMARK   20  A    between atoms: _49  and  _50
REMARK   21  A    between atoms: _49  and  _52
REMARK   22  A    between atoms: _52  and  _53
REMARK   23  A    between atoms: _59  and  _61
REMARK   24  A    between atoms: _61  and  _62
REMARK   25  A    between atoms: _61  and  _64
REMARK   26  A    between atoms: _64  and  _65
REMARK   27  A    between atoms: _71  and  _73
REMARK   28  A    between atoms: _73  and  _74
REMARK   29  A    between atoms: _73  and  _76
REMARK   30  A    between atoms: _76  and  _77
REMARK   31  A    between atoms: _77  and  _78
REMARK   32  A    between atoms: _78  and  _79
REMARK   33  A    between atoms: _88  and  _90
REMARK   34  A    between atoms: _90  and  _91
REMARK   35  A    between atoms: _90  and  _93
REMARK   36  A    between atoms: _93  and  _94
REMARK   37  A    between atoms: _94  and  _95
REMARK   38  A    between atoms: _97  and  _99
REMARK   39  A    between atoms: _99  and  _100
REMARK   40  A    between atoms: _99  and  _102
REMARK   41  A    between atoms: _102  and  _103
REMARK   42  A    between atoms: _107  and  _108
REMARK   43  A    between atoms: _113  and  _115
REMARK   44  A    between atoms: _115  and  _116
REMARK   45  A    between atoms: _115  and  _118
REMARK   46  A    between atoms: _118  and  _119
REMARK   47  A    between atoms: _124  and  _126
REMARK   48  A    between atoms: _126  and  _127
REMARK   49  A    between atoms: _126  and  _129
REMARK   50  A    between atoms: _129  and  _130
REMARK   51  A    between atoms: _133  and  _135
REMARK   52  A    between atoms: _135  and  _136
REMARK   53  A    between atoms: _139  and  _141
REMARK   54  A    between atoms: _141  and  _142
REMARK   55  A    between atoms: _141  and  _144
REMARK   56  A    between atoms: _144  and  _145
REMARK   57  A    between atoms: _148  and  _150
REMARK   58  A    between atoms: _150  and  _151
REMARK   59  A    between atoms: _150  and  _153
REMARK   60  A    between atoms: _153  and  _154
REMARK   61  A    between atoms: _157  and  _159
REMARK   62  A    between atoms: _159  and  _160
REMARK   63  A    between atoms: _159  and  _162
REMARK   64  A    between atoms: _165  and  _167
REMARK   65  A    between atoms: _167  and  _168
REMARK   66  A    between atoms: _167  and  _170
REMARK   67  A    between atoms: _170  and  _171
REMARK   68  A    between atoms: _173  and  _175
REMARK   69  A    between atoms: _175  and  _176
REMARK   70  A    between atoms: _175  and  _178
REMARK   71  A    between atoms: _178  and  _179
REMARK   72  A    between atoms: _184  and  _185
REMARK   73  A    between atoms: _187  and  _189
REMARK   74  A    between atoms: _189  and  _190
REMARK   75  A    between atoms: _189  and  _192
REMARK   76  A    between atoms: _192  and  _193
REMARK   77  A    between atoms: _195  and  _197
REMARK   78  A    between atoms: _197  and  _198
REMARK   79  A    between atoms: _197  and  _200
REMARK   80  A    between atoms: _200  and  _201
REMARK   81  A    between atoms: _204  and  _206
REMARK   82  A    between atoms: _206  and  _207
REMARK   83  A    between atoms: _206  and  _209
REMARK   84  A    between atoms: _209  and  _210
REMARK   85  A    between atoms: _210  and  _211
REMARK   86  A    between atoms: _211  and  _212
REMARK   87  A    between atoms: _212  and  _213
REMARK   88  A    between atoms: _217  and  _219
REMARK   89  A    between atoms: _219  and  _220
REMARK   90  A    between atoms: _219  and  _222
REMARK   91  A    between atoms: _225  and  _227
REMARK   92  A    between atoms: _227  and  _228
REMARK   93  A    between atoms: _231  and  _233
REMARK   94  A    between atoms: _233  and  _234
REMARK   95  A    between atoms: _233  and  _236
REMARK   96  A    between atoms: _236  and  _237
REMARK   97  A    between atoms: _240  and  _242
REMARK   98  A    between atoms: _242  and  _243
REMARK   99  A    between atoms: _242  and  _245
REMARK  100  A    between atoms: _245  and  _246
REMARK  101  A    between atoms: _246  and  _247
REMARK  102  A    between atoms: _250  and  _252
REMARK  103  A    between atoms: _252  and  _253
REMARK  104  A    between atoms: _252  and  _255
REMARK  105  A    between atoms: _258  and  _260
REMARK  106  A    between atoms: _260  and  _261
REMARK  107  A    between atoms: _260  and  _263
REMARK  108  A    between atoms: _263  and  _264
REMARK  109  A    between atoms: _267  and  _269
REMARK  110  A    between atoms: _269  and  _270
REMARK  111  A    between atoms: _269  and  _272
REMARK  112  A    between atoms: _272  and  _273
REMARK  113  A    between atoms: _273  and  _274
REMARK  114  A    between atoms: _276  and  _278
REMARK  115  A    between atoms: _278  and  _279
REMARK  116  A    between atoms: _278  and  _281
REMARK  117  A    between atoms: _281  and  _282
REMARK  118  A    between atoms: _285  and  _287
REMARK  119  A    between atoms: _287  and  _288
REMARK  120  A    between atoms: _287  and  _290
REMARK  121  A    between atoms: _290  and  _291
REMARK  122  A    between atoms: _291  and  _292
REMARK  123  A    between atoms: _292  and  _293
REMARK  124  A    between atoms: _302  and  _304
REMARK  125  A    between atoms: _304  and  _305
REMARK  126  A    between atoms: _304  and  _307
REMARK  127  A    between atoms: _307  and  _308
REMARK  128  A    between atoms: _310  and  _312
REMARK  129  A    between atoms: _312  and  _313
REMARK  130  A    between atoms: _312  and  _315
REMARK  131  A    between atoms: _315  and  _316
REMARK  132  A    between atoms: _321  and  _323
REMARK  133  A    between atoms: _323  and  _324
REMARK  134  A    between atoms: _323  and  _326
REMARK  135  A    between atoms: _326  and  _327
REMARK  136  A    between atoms: _327  and  _328
REMARK  137  A    between atoms: _331  and  _333
REMARK  138  A    between atoms: _333  and  _334
REMARK  139  A    between atoms: _333  and  _336
REMARK  140  A    between atoms: _336  and  _337
REMARK  141  A    between atoms: _339  and  _341
REMARK  142  A    between atoms: _341  and  _342
REMARK  143  A    between atoms: _341  and  _344
REMARK  144  A    between atoms: _344  and  _345
REMARK  145  A    between atoms: _351  and  _353
REMARK  146  A    between atoms: _353  and  _354
REMARK  147  A    between atoms: _353  and  _356
REMARK  148  A    between atoms: _356  and  _357
REMARK  149  A    between atoms: _359  and  _361
REMARK  150  A    between atoms: _361  and  _362
REMARK  151  A    between atoms: _361  and  _364
REMARK  152  A    between atoms: _364  and  _365
REMARK  153  A    between atoms: _375  and  _377
REMARK  154  A    between atoms: _377  and  _378
REMARK  155  A    between atoms: _377  and  _380
REMARK  156  A    between atoms: _380  and  _381
REMARK  157  A    between atoms: _384  and  _386
REMARK  158  A    between atoms: _386  and  _387
REMARK  159  A    between atoms: _386  and  _389
REMARK  160  A    between atoms: _391  and  _393
REMARK  161  A    between atoms: _393  and  _394
REMARK  162  A    between atoms: _393  and  _396
REMARK  163  A    between atoms: _396  and  _397
REMARK  164  A    between atoms: _402  and  _403
REMARK  165  A    between atoms: _405  and  _407
REMARK  166  A    between atoms: _407  and  _408
REMARK  167  A    between atoms: _407  and  _410
REMARK  168  A    between atoms: _410  and  _411
REMARK  169  A    between atoms: _411  and  _412
REMARK  170  A    between atoms: _412  and  _413
REMARK  171  A    between atoms: _413  and  _414
REMARK  172  A    between atoms: _418  and  _420
REMARK  173  A    between atoms: _420  and  _421
REMARK  174  A    between atoms: _420  and  _423
REMARK  175  A    between atoms: _423  and  _424
REMARK  176  A    between atoms: _429  and  _430
REMARK  177  A    between atoms: _432  and  _434
REMARK  178  A    between atoms: _434  and  _435
REMARK  179  A    between atoms: _434  and  _437
REMARK  180  A    between atoms: _437  and  _438
REMARK  181  A    between atoms: _438  and  _439
REMARK  182  A    between atoms: _439  and  _440
REMARK  183  A    between atoms: _449  and  _451
REMARK  184  A    between atoms: _451  and  _452
REMARK  185  A    between atoms: _451  and  _454
REMARK  186  A    between atoms: _457  and  _459
REMARK  187  A    between atoms: _459  and  _460
REMARK  188  A    between atoms: _459  and  _462
REMARK  189  A    between atoms: _462  and  _463
REMARK  190  A    between atoms: _466  and  _468
REMARK  191  A    between atoms: _468  and  _469
REMARK  192  A    between atoms: _468  and  _471
REMARK  193  A    between atoms: _474  and  _476
REMARK  194  A    between atoms: _476  and  _477
REMARK  195  A    between atoms: _476  and  _479
REMARK  196  A    between atoms: _479  and  _480
REMARK  197  A    between atoms: _483  and  _485
REMARK  198  A    between atoms: _485  and  _486
REMARK  199  A    between atoms: _489  and  _491
REMARK  200  A    between atoms: _491  and  _492
REMARK  201  A    between atoms: _494  and  _496
REMARK  202  A    between atoms: _496  and  _497
REMARK  203  A    between atoms: _496  and  _499
REMARK  204  A    between atoms: _499  and  _500
REMARK  205  A    between atoms: _505  and  _507
REMARK  206  A    between atoms: _507  and  _508
REMARK  207  A    between atoms: _507  and  _510
REMARK  208  A    between atoms: _510  and  _511
REMARK  209  A    between atoms: _513  and  _515
REMARK  210  A    between atoms: _515  and  _516
REMARK  211  A    between atoms: _515  and  _518
REMARK  212  A    between atoms: _518  and  _519
REMARK  213  A    between atoms: _522  and  _524
REMARK  214  A    between atoms: _524  and  _525
REMARK  215  A    between atoms: _524  and  _527
REMARK  216  A    between atoms: _527  and  _528
REMARK  217  A    between atoms: _531  and  _533
REMARK  218  A    between atoms: _533  and  _534
REMARK  219  A    between atoms: _533  and  _536
REMARK  220  A    between atoms: _536  and  _537
REMARK  221  A    between atoms: _540  and  _542
REMARK  222  A    between atoms: _542  and  _543
REMARK  223  A    between atoms: _542  and  _545
REMARK  224  A    between atoms: _545  and  _546
REMARK  225  A    between atoms: _549  and  _551
REMARK  226  A    between atoms: _551  and  _552
REMARK  227  A    between atoms: _551  and  _554
REMARK  228  A    between atoms: _554  and  _555
REMARK  229  A    between atoms: _555  and  _556
REMARK  230  A    between atoms: _561  and  _563
REMARK  231  A    between atoms: _563  and  _564
REMARK  232  A    between atoms: _563  and  _566
REMARK  233  A    between atoms: _566  and  _567
REMARK  234  A    between atoms: _570  and  _572
REMARK  235  A    between atoms: _572  and  _573
REMARK  236  A    between atoms: _572  and  _575
REMARK  237  A    between atoms: _575  and  _576
REMARK  238  A    between atoms: _581  and  _583
REMARK  239  A    between atoms: _583  and  _584
REMARK  240  A    between atoms: _583  and  _586
REMARK  241  A    between atoms: _586  and  _587
REMARK  242  A    between atoms: _589  and  _591
REMARK  243  A    between atoms: _591  and  _592
REMARK  244  A    between atoms: _591  and  _594
REMARK  245  A    between atoms: _594  and  _595
REMARK  246  A    between atoms: _595  and  _596
REMARK  247  A    between atoms: _601  and  _603
REMARK  248  A    between atoms: _603  and  _604
REMARK  249  A    between atoms: _603  and  _606
REMARK  250  A    between atoms: _606  and  _607
REMARK  251  A    between atoms: _612  and  _613
REMARK  252  A    between atoms: _615  and  _617
REMARK  253  A    between atoms: _617  and  _618
REMARK  254  A    between atoms: _617  and  _620
REMARK  255  A    between atoms: _620  and  _621
REMARK  256  A    between atoms: _624  and  _626
REMARK  257  A    between atoms: _626  and  _627
REMARK  258  A    between atoms: _626  and  _629
REMARK  259  A    between atoms: _629  and  _630
REMARK  260  A    between atoms: _630  and  _631
REMARK  261  A    between atoms: _631  and  _632
REMARK  262  A    between atoms: _632  and  _633
REMARK  263  A    between atoms: _637  and  _639
REMARK  264  A    between atoms: _639  and  _640
REMARK  265  A    between atoms: _639  and  _642
REMARK  266  A    between atoms: _642  and  _643
REMARK  267  A    between atoms: _646  and  _648
REMARK  268  A    between atoms: _648  and  _649
REMARK  269  A    between atoms: _648  and  _651
REMARK  270  A    between atoms: _651  and  _652
REMARK  271  A    between atoms: _655  and  _657
REMARK  272  A    between atoms: _657  and  _658
REMARK  273  A    between atoms: _657  and  _660
REMARK  274  A    between atoms: _663  and  _665
REMARK  275  A    between atoms: _665  and  _666
REMARK  276  A    between atoms: _665  and  _668
REMARK  277  A    between atoms: _668  and  _669
REMARK                            x       y       z     vdW  Elec       q    Type
REMARK                         _______ _______ _______ _____ _____    ______ ____
ROOT
ATOM      1  CB  PHE A   1      13.273  14.277  26.627  0.00  0.00    +0.051 C 
ENDROOT
BRANCH   1   2
ATOM      2  CG  PHE A   1      13.603  14.725  28.032  0.00  0.00    -0.020 A 
ATOM      3  CD2 PHE A   1      13.529  13.835  29.103  0.00  0.00    -0.004 A 
ATOM      4  CE2 PHE A   1      13.852  14.242  30.398  0.00  0.00    -0.000 A 
ATOM      5  CZ  PHE A   1      14.256  15.557  30.632  0.00  0.00    -0.000 A 
ATOM      6  CE1 PHE A   1      14.333  16.455  29.570  0.00  0.00    -0.000 A 
ATOM      7  CD1 PHE A   1      14.007  16.036  28.281  0.00  0.00    -0.004 A 
ENDBRANCH   1   2
BRANCH   1   8
ATOM      8  CA  PHE A   1      12.079  13.322  26.545  0.00  0.00    +0.137 C 
BRANCH   8   9
ATOM      9  N   PHE A   1      12.463  12.020  27.083  0.00  0.00    -0.239 NA
ATOM     10  H   PHE A   1      13.441  11.878  27.407  0.00  0.00    +0.142 HD
ENDBRANCH   8   9
BRANCH   8  11
ATOM     11  C   PHE A   1      11.467  13.367  25.145  0.00  0.00    +0.224 C 
ATOM     12  O   PHE A   1      10.751  14.318  24.816  0.00  0.00    -0.287 OA
ENDBRANCH   8  11
ENDBRANCH   1   8
TORSDOF 4
REMARK  Name = ../refined-set-2016/1s19/1s19_pocket.pdb
REMARK  277 active torsions:
REMARK  status: ('A' for Active; 'I' for Inactive)
REMARK    1  A    between atoms: _1  and  _3
REMARK    2  A    between atoms: _3  and  _4
REMARK    3  A    between atoms: _3  and  _6
REMARK    4  A    between atoms: _6  and  _7
REMARK    5  A    between atoms: _10  and  _12
REMARK    6  A    between atoms: _12  and  _13
REMARK    7  A    between atoms: _12  and  _15
REMARK    8  A    between atoms: _15  and  _16
REMARK    9  A    between atoms: _21  and  _22
REMARK   10  A    between atoms: _24  and  _26
REMARK   11  A    between atoms: _26  and  _27
REMARK   12  A    between atoms: _26  and  _29
REMARK   13  A    between atoms: _29  and  _30
REMARK   14  A    between atoms: _33  and  _35
REMARK   15  A    between atoms: _35  and  _36
REMARK   16  A    between atoms: _35  and  _38
REMARK   17  A    between atoms: _38  and  _39
REMARK   18  A    between atoms: _44  and  _45
REMARK   19  A    between atoms: _47  and  _49
REMARK   20  A    between atoms: _49  and  _50
REMARK   21  A    between atoms: _49  and  _52
REMARK   22  A    between atoms: _52  and  _53
REMARK   23  A    between atoms: _59  and  _61
REMARK   24  A    between atoms: _61  and  _62
REMARK   25  A    between atoms: _61  and  _64
REMARK   26  A    between atoms: _64  and  _65
REMARK   27  A    between atoms: _71  and  _73
REMARK   28  A    between atoms: _73  and  _74
REMARK   29  A    between atoms: _73  and  _76
REMARK   30  A    between atoms: _76  and  _77
REMARK   31  A    between atoms: _77  and  _78
REMARK   32  A    between atoms: _78  and  _79
REMARK   33  A    between atoms: _88  and  _90
REMARK   34  A    between atoms: _90  and  _91
REMARK   35  A    between atoms: _90  and  _93
REMARK   36  A    between atoms: _93  and  _94
REMARK   37  A    between atoms: _94  and  _95
REMARK   38  A    between atoms: _97  and  _99
REMARK   39  A    between atoms: _99  and  _100
REMARK   40  A    between atoms: _99  and  _102
REMARK   41  A    between atoms: _102  and  _103
REMARK   42  A    between atoms: _107  and  _108
REMARK   43  A    between atoms: _113  and  _115
REMARK   44  A    between atoms: _115  and  _116
REMARK   45  A    between atoms: _115  and  _118
REMARK   46  A    between atoms: _118  and  _119
REMARK   47  A    between atoms: _124  and  _126
REMARK   48  A    between atoms: _126  and  _127
REMARK   49  A    between atoms: _126  and  _129
REMARK   50  A    between atoms: _129  and  _130
REMARK   51  A    between atoms: _133  and  _135
REMARK   52  A    between atoms: _135  and  _136
REMARK   53  A    between atoms: _139  and  _141
REMARK   54  A    between atoms: _141  and  _142
REMARK   55  A    between atoms: _141  and  _144
REMARK   56  A    between atoms: _144  and  _145
REMARK   57  A    between atoms: _148  and  _150
REMARK   58  A    between atoms: _150  and  _151
REMARK   59  A    between atoms: _150  and  _153
REMARK   60  A    between atoms: _153  and  _154
REMARK   61  A    between atoms: _157  and  _159
REMARK   62  A    between atoms: _159  and  _160
REMARK   63  A    between atoms: _159  and  _162
REMARK   64  A    between atoms: _165  and  _167
REMARK   65  A    between atoms: _167  and  _168
REMARK   66  A    between atoms: _167  and  _170
REMARK   67  A    between atoms: _170  and  _171
REMARK   68  A    between atoms: _173  and  _175
REMARK   69  A    between atoms: _175  and  _176
REMARK   70  A    between atoms: _175  and  _178
REMARK   71  A    between atoms: _178  and  _179
REMARK   72  A    between atoms: _184  and  _185
REMARK   73  A    between atoms: _187  and  _189
REMARK   74  A    between atoms: _189  and  _190
REMARK   75  A    between atoms: _189  and  _192
REMARK   76  A    between atoms: _192  and  _193
REMARK   77  A    between atoms: _195  and  _197
REMARK   78  A    between atoms: _197  and  _198
REMARK   79  A    between atoms: _197  and  _200
REMARK   80  A    between atoms: _200  and  _201
REMARK   81  A    between atoms: _204  and  _206
REMARK   82  A    between atoms: _206  and  _207
REMARK   83  A    between atoms: _206  and  _209
REMARK   84  A    between atoms: _209  and  _210
REMARK   85  A    between atoms: _210  and  _211
REMARK   86  A    between atoms: _211  and  _212
REMARK   87  A    between atoms: _212  and  _213
REMARK   88  A    between atoms: _217  and  _219
REMARK   89  A    between atoms: _219  and  _220
REMARK   90  A    between atoms: _219  and  _222
REMARK   91  A    between atoms: _225  and  _227
REMARK   92  A    between atoms: _227  and  _228
REMARK   93  A    between atoms: _231  and  _233
REMARK   94  A    between atoms: _233  and  _234
REMARK   95  A    between atoms: _233  and  _236
REMARK   96  A    between atoms: _236  and  _237
REMARK   97  A    between atoms: _240  and  _242
REMARK   98  A    between atoms: _242  and  _243
REMARK   99  A    between atoms: _242  and  _245
REMARK  100  A    between atoms: _245  and  _246
REMARK  101  A    between atoms: _246  and  _247
REMARK  102  A    between atoms: _250  and  _252
REMARK  103  A    between atoms: _252  and  _253
REMARK  104  A    between atoms: _252  and  _255
REMARK  105  A    between atoms: _258  and  _260
REMARK  106  A    between atoms: _260  and  _261
REMARK  107  A    between atoms: _260  and  _263
REMARK  108  A    between atoms: _263  and  _264
REMARK  109  A    between atoms: _267  and  _269
REMARK  110  A    between atoms: _269  and  _270
REMARK  111  A    between atoms: _269  and  _272
REMARK  112  A    between atoms: _272  and  _273
REMARK  113  A    between atoms: _273  and  _274
REMARK  114  A    between atoms: _276  and  _278
REMARK  115  A    between atoms: _278  and  _279
REMARK  116  A    between atoms: _278  and  _281
REMARK  117  A    between atoms: _281  and  _282
REMARK  118  A    between atoms: _285  and  _287
REMARK  119  A    between atoms: _287  and  _288
REMARK  120  A    between atoms: _287  and  _290
REMARK  121  A    between atoms: _290  and  _291
REMARK  122  A    between atoms: _291  and  _292
REMARK  123  A    between atoms: _292  and  _293
REMARK  124  A    between atoms: _302  and  _304
REMARK  125  A    between atoms: _304  and  _305
REMARK  126  A    between atoms: _304  and  _307
REMARK  127  A    between atoms: _307  and  _308
REMARK  128  A    between atoms: _310  and  _312
REMARK  129  A    between atoms: _312  and  _313
REMARK  130  A    between atoms: _312  and  _315
REMARK  131  A    between atoms: _315  and  _316
REMARK  132  A    between atoms: _321  and  _323
REMARK  133  A    between atoms: _323  and  _324
REMARK  134  A    between atoms: _323  and  _326
REMARK  135  A    between atoms: _326  and  _327
REMARK  136  A    between atoms: _327  and  _328
REMARK  137  A    between atoms: _331  and  _333
REMARK  138  A    between atoms: _333  and  _334
REMARK  139  A    between atoms: _333  and  _336
REMARK  140  A    between atoms: _336  and  _337
REMARK  141  A    between atoms: _339  and  _341
REMARK  142  A    between atoms: _341  and  _342
REMARK  143  A    between atoms: _341  and  _344
REMARK  144  A    between atoms: _344  and  _345
REMARK  145  A    between atoms: _351  and  _353
REMARK  146  A    between atoms: _353  and  _354
REMARK  147  A    between atoms: _353  and  _356
REMARK  148  A    between atoms: _356  and  _357
REMARK  149  A    between atoms: _359  and  _361
REMARK  150  A    between atoms: _361  and  _362
REMARK  151  A    between atoms: _361  and  _364
REMARK  152  A    between atoms: _364  and  _365
REMARK  153  A    between atoms: _375  and  _377
REMARK  154  A    between atoms: _377  and  _378
REMARK  155  A    between atoms: _377  and  _380
REMARK  156  A    between atoms: _380  and  _381
REMARK  157  A    between atoms: _384  and  _386
REMARK  158  A    between atoms: _386  and  _387
REMARK  159  A    between atoms: _386  and  _389
REMARK  160  A    between atoms: _391  and  _393
REMARK  161  A    between atoms: _393  and  _394
REMARK  162  A    between atoms: _393  and  _396
REMARK  163  A    between atoms: _396  and  _397
REMARK  164  A    between atoms: _402  and  _403
REMARK  165  A    between atoms: _405  and  _407
REMARK  166  A    between atoms: _407  and  _408
REMARK  167  A    between atoms: _407  and  _410
REMARK  168  A    between atoms: _410  and  _411
REMARK  169  A    between atoms: _411  and  _412
REMARK  170  A    between atoms: _412  and  _413
REMARK  171  A    between atoms: _413  and  _414
REMARK  172  A    between atoms: _418  and  _420
REMARK  173  A    between atoms: _420  and  _421
REMARK  174  A    between atoms: _420  and  _423
REMARK  175  A    between atoms: _423  and  _424
REMARK  176  A    between atoms: _429  and  _430
REMARK  177  A    between atoms: _432  and  _434
REMARK  178  A    between atoms: _434  and  _435
REMARK  179  A    between atoms: _434  and  _437
REMARK  180  A    between atoms: _437  and  _438
REMARK  181  A    between atoms: _438  and  _439
REMARK  182  A    between atoms: _439  and  _440
REMARK  183  A    between atoms: _449  and  _451
REMARK  184  A    between atoms: _451  and  _452
REMARK  185  A    between atoms: _451  and  _454
REMARK  186  A    between atoms: _457  and  _459
REMARK  187  A    between atoms: _459  and  _460
REMARK  188  A    between atoms: _459  and  _462
REMARK  189  A    between atoms: _462  and  _463
REMARK  190  A    between atoms: _466  and  _468
REMARK  191  A    between atoms: _468  and  _469
REMARK  192  A    between atoms: _468  and  _471
REMARK  193  A    between atoms: _474  and  _476
REMARK  194  A    between atoms: _476  and  _477
REMARK  195  A    between atoms: _476  and  _479
REMARK  196  A    between atoms: _479  and  _480
REMARK  197  A    between atoms: _483  and  _485
REMARK  198  A    between atoms: _485  and  _486
REMARK  199  A    between atoms: _489  and  _491
REMARK  200  A    between atoms: _491  and  _492
REMARK  201  A    between atoms: _494  and  _496
REMARK  202  A    between atoms: _496  and  _497
REMARK  203  A    between atoms: _496  and  _499
REMARK  204  A    between atoms: _499  and  _500
REMARK  205  A    between atoms: _505  and  _507
REMARK  206  A    between atoms: _507  and  _508
REMARK  207  A    between atoms: _507  and  _510
REMARK  208  A    between atoms: _510  and  _511
REMARK  209  A    between atoms: _513  and  _515
REMARK  210  A    between atoms: _515  and  _516
REMARK  211  A    between atoms: _515  and  _518
REMARK  212  A    between atoms: _518  and  _519
REMARK  213  A    between atoms: _522  and  _524
REMARK  214  A    between atoms: _524  and  _525
REMARK  215  A    between atoms: _524  and  _527
REMARK  216  A    between atoms: _527  and  _528
REMARK  217  A    between atoms: _531  and  _533
REMARK  218  A    between atoms: _533  and  _534
REMARK  219  A    between atoms: _533  and  _536
REMARK  220  A    between atoms: _536  and  _537
REMARK  221  A    between atoms: _540  and  _542
REMARK  222  A    between atoms: _542  and  _543
REMARK  223  A    between atoms: _542  and  _545
REMARK  224  A    between atoms: _545  and  _546
REMARK  225  A    between atoms: _549  and  _551
REMARK  226  A    between atoms: _551  and  _552
REMARK  227  A    between atoms: _551  and  _554
REMARK  228  A    between atoms: _554  and  _555
REMARK  229  A    between atoms: _555  and  _556
REMARK  230  A    between atoms: _561  and  _563
REMARK  231  A    between atoms: _563  and  _564
REMARK  232  A    between atoms: _563  and  _566
REMARK  233  A    between atoms: _566  and  _567
REMARK  234  A    between atoms: _570  and  _572
REMARK  235  A    between atoms: _572  and  _573
REMARK  236  A    between atoms: _572  and  _575
REMARK  237  A    between atoms: _575  and  _576
REMARK  238  A    between atoms: _581  and  _583
REMARK  239  A    between atoms: _583  and  _584
REMARK  240  A    between atoms: _583  and  _586
REMARK  241  A    between atoms: _586  and  _587
REMARK  242  A    between atoms: _589  and  _591
REMARK  243  A    between atoms: _591  and  _592
REMARK  244  A    between atoms: _591  and  _594
REMARK  245  A    between atoms: _594  and  _595
REMARK  246  A    between atoms: _595  and  _596
REMARK  247  A    between atoms: _601  and  _603
REMARK  248  A    between atoms: _603  and  _604
REMARK  249  A    between atoms: _603  and  _606
REMARK  250  A    between atoms: _606  and  _607
REMARK  251  A    between atoms: _612  and  _613
REMARK  252  A    between atoms: _615  and  _617
REMARK  253  A    between atoms: _617  and  _618
REMARK  254  A    between atoms: _617  and  _620
REMARK  255  A    between atoms: _620  and  _621
REMARK  256  A    between atoms: _624  and  _626
REMARK  257  A    between atoms: _626  and  _627
REMARK  258  A    between atoms: _626  and  _629
REMARK  259  A    between atoms: _629  and  _630
REMARK  260  A    between atoms: _630  and  _631
REMARK  261  A    between atoms: _631  and  _632
REMARK  262  A    between atoms: _632  and  _633
REMARK  263  A    between atoms: _637  and  _639
REMARK  264  A    between atoms: _639  and  _640
REMARK  265  A    between atoms: _639  and  _642
REMARK  266  A    between atoms: _642  and  _643
REMARK  267  A    between atoms: _646  and  _648
REMARK  268  A    between atoms: _648  and  _649
REMARK  269  A    between atoms: _648  and  _651
REMARK  270  A    between atoms: _651  and  _652
REMARK  271  A    between atoms: _655  and  _657
REMARK  272  A    between atoms: _657  and  _658
REMARK  273  A    between atoms: _657  and  _660
REMARK  274  A    between atoms: _663  and  _665
REMARK  275  A    between atoms: _665  and  _666
REMARK  276  A    between atoms: _665  and  _668
REMARK  277  A    between atoms: _668  and  _669
REMARK                            x       y       z     vdW  Elec       q    Type
REMARK                         _______ _______ _______ _____ _____    ______ ____
ROOT
ATOM      1  CB  PHE A   1       7.679  15.709  26.162  0.00  0.00    +0.051 C 
ENDROOT
BRANCH   1   2
ATOM      2  CG  PHE A   1       8.290  15.146  27.419  0.00  0.00    -0.020 A 
ATOM      3  CD2 PHE A   1       7.741  14.039  28.051  0.00  0.00    -0.004 A 
ATOM      4  CE2 PHE A   1       8.322  13.516  29.209  0.00  0.00    -0.000 A 
ATOM      5  CZ  PHE A   1       9.466  14.108  29.739  0.00  0.00    -0.000 A 
ATOM      6  CE1 PHE A   1      10.022  15.216  29.118  0.00  0.00    -0.000 A 
ATOM      7  CD1 PHE A   1       9.431  15.731  27.963  0.00  0.00    -0.004 A 
ENDBRANCH   1   2
BRANCH   1   8
ATOM      8  CA  PHE A   1       6.794  14.723  25.393  0.00  0.00    +0.137 C 
BRANCH   8   9
ATOM      9  N   PHE A   1       7.540  13.508  25.064  0.00  0.00    -0.239 NA
ATOM     10  H   PHE A   1       8.577  13.513  25.143  0.00  0.00    +0.142 HD
ENDBRANCH   8   9
BRANCH   8  11
ATOM     11  C   PHE A   1       6.351  15.405  24.106  0.00  0.00    +0.224 C 
ATOM     12  O   PHE A   1       6.876  15.118  23.029  0.00  0.00    -0.287 OA
ENDBRANCH   8  11
ENDBRANCH   1   8
TORSDOF 4
REMARK  Name = ../refined-set-2016/1s19/1s19_pocket.pdb
REMARK  277 active torsions:
REMARK  status: ('A' for Active; 'I' for Inactive)
REMARK    1  A    between atoms: _1  and  _3
REMARK    2  A    between atoms: _3  and  _4
REMARK    3  A    between atoms: _3  and  _6
REMARK    4  A    between atoms: _6  and  _7
REMARK    5  A    between atoms: _10  and  _12
REMARK    6  A    between atoms: _12  and  _13
REMARK    7  A    between atoms: _12  and  _15
REMARK    8  A    between atoms: _15  and  _16
REMARK    9  A    between atoms: _21  and  _22
REMARK   10  A    between atoms: _24  and  _26
REMARK   11  A    between atoms: _26  and  _27
REMARK   12  A    between atoms: _26  and  _29
REMARK   13  A    between atoms: _29  and  _30
REMARK   14  A    between atoms: _33  and  _35
REMARK   15  A    between atoms: _35  and  _36
REMARK   16  A    between atoms: _35  and  _38
REMARK   17  A    between atoms: _38  and  _39
REMARK   18  A    between atoms: _44  and  _45
REMARK   19  A    between atoms: _47  and  _49
REMARK   20  A    between atoms: _49  and  _50
REMARK   21  A    between atoms: _49  and  _52
REMARK   22  A    between atoms: _52  and  _53
REMARK   23  A    between atoms: _59  and  _61
REMARK   24  A    between atoms: _61  and  _62
REMARK   25  A    between atoms: _61  and  _64
REMARK   26  A    between atoms: _64  and  _65
REMARK   27  A    between atoms: _71  and  _73
REMARK   28  A    between atoms: _73  and  _74
REMARK   29  A    between atoms: _73  and  _76
REMARK   30  A    between atoms: _76  and  _77
REMARK   31  A    between atoms: _77  and  _78
REMARK   32  A    between atoms: _78  and  _79
REMARK   33  A    between atoms: _88  and  _90
REMARK   34  A    between atoms: _90  and  _91
REMARK   35  A    between atoms: _90  and  _93
REMARK   36  A    between atoms: _93  and  _94
REMARK   37  A    between atoms: _94  and  _95
REMARK   38  A    between atoms: _97  and  _99
REMARK   39  A    between atoms: _99  and  _100
REMARK   40  A    between atoms: _99  and  _102
REMARK   41  A    between atoms: _102  and  _103
REMARK   42  A    between atoms: _107  and  _108
REMARK   43  A    between atoms: _113  and  _115
REMARK   44  A    between atoms: _115  and  _116
REMARK   45  A    between atoms: _115  and  _118
REMARK   46  A    between atoms: _118  and  _119
REMARK   47  A    between atoms: _124  and  _126
REMARK   48  A    between atoms: _126  and  _127
REMARK   49  A    between atoms: _126  and  _129
REMARK   50  A    between atoms: _129  and  _130
REMARK   51  A    between atoms: _133  and  _135
REMARK   52  A    between atoms: _135  and  _136
REMARK   53  A    between atoms: _139  and  _141
REMARK   54  A    between atoms: _141  and  _142
REMARK   55  A    between atoms: _141  and  _144
REMARK   56  A    between atoms: _144  and  _145
REMARK   57  A    between atoms: _148  and  _150
REMARK   58  A    between atoms: _150  and  _151
REMARK   59  A    between atoms: _150  and  _153
REMARK   60  A    between atoms: _153  and  _154
REMARK   61  A    between atoms: _157  and  _159
REMARK   62  A    between atoms: _159  and  _160
REMARK   63  A    between atoms: _159  and  _162
REMARK   64  A    between atoms: _165  and  _167
REMARK   65  A    between atoms: _167  and  _168
REMARK   66  A    between atoms: _167  and  _170
REMARK   67  A    between atoms: _170  and  _171
REMARK   68  A    between atoms: _173  and  _175
REMARK   69  A    between atoms: _175  and  _176
REMARK   70  A    between atoms: _175  and  _178
REMARK   71  A    between atoms: _178  and  _179
REMARK   72  A    between atoms: _184  and  _185
REMARK   73  A    between atoms: _187  and  _189
REMARK   74  A    between atoms: _189  and  _190
REMARK   75  A    between atoms: _189  and  _192
REMARK   76  A    between atoms: _192  and  _193
REMARK   77  A    between atoms: _195  and  _197
REMARK   78  A    between atoms: _197  and  _198
REMARK   79  A    between atoms: _197  and  _200
REMARK   80  A    between atoms: _200  and  _201
REMARK   81  A    between atoms: _204  and  _206
REMARK   82  A    between atoms: _206  and  _207
REMARK   83  A    between atoms: _206  and  _209
REMARK   84  A    between atoms: _209  and  _210
REMARK   85  A    between atoms: _210  and  _211
REMARK   86  A    between atoms: _211  and  _212
REMARK   87  A    between atoms: _212  and  _213
REMARK   88  A    between atoms: _217  and  _219
REMARK   89  A    between atoms: _219  and  _220
REMARK   90  A    between atoms: _219  and  _222
REMARK   91  A    between atoms: _225  and  _227
REMARK   92  A    between atoms: _227  and  _228
REMARK   93  A    between atoms: _231  and  _233
REMARK   94  A    between atoms: _233  and  _234
REMARK   95  A    between atoms: _233  and  _236
REMARK   96  A    between atoms: _236  and  _237
REMARK   97  A    between atoms: _240  and  _242
REMARK   98  A    between atoms: _242  and  _243
REMARK   99  A    between atoms: _242  and  _245
REMARK  100  A    between atoms: _245  and  _246
REMARK  101  A    between atoms: _246  and  _247
REMARK  102  A    between atoms: _250  and  _252
REMARK  103  A    between atoms: _252  and  _253
REMARK  104  A    between atoms: _252  and  _255
REMARK  105  A    between atoms: _258  and  _260
REMARK  106  A    between atoms: _260  and  _261
REMARK  107  A    between atoms: _260  and  _263
REMARK  108  A    between atoms: _263  and  _264
REMARK  109  A    between atoms: _267  and  _269
REMARK  110  A    between atoms: _269  and  _270
REMARK  111  A    between atoms: _269  and  _272
REMARK  112  A    between atoms: _272  and  _273
REMARK  113  A    between atoms: _273  and  _274
REMARK  114  A    between atoms: _276  and  _278
REMARK  115  A    between atoms: _278  and  _279
REMARK  116  A    between atoms: _278  and  _281
REMARK  117  A    between atoms: _281  and  _282
REMARK  118  A    between atoms: _285  and  _287
REMARK  119  A    between atoms: _287  and  _288
REMARK  120  A    between atoms: _287  and  _290
REMARK  121  A    between atoms: _290  and  _291
REMARK  122  A    between atoms: _291  and  _292
REMARK  123  A    between atoms: _292  and  _293
REMARK  124  A    between atoms: _302  and  _304
REMARK  125  A    between atoms: _304  and  _305
REMARK  126  A    between atoms: _304  and  _307
REMARK  127  A    between atoms: _307  and  _308
REMARK  128  A    between atoms: _310  and  _312
REMARK  129  A    between atoms: _312  and  _313
REMARK  130  A    between atoms: _312  and  _315
REMARK  131  A    between atoms: _315  and  _316
REMARK  132  A    between atoms: _321  and  _323
REMARK  133  A    between atoms: _323  and  _324
REMARK  134  A    between atoms: _323  and  _326
REMARK  135  A    between atoms: _326  and  _327
REMARK  136  A    between atoms: _327  and  _328
REMARK  137  A    between atoms: _331  and  _333
REMARK  138  A    between atoms: _333  and  _334
REMARK  139  A    between atoms: _333  and  _336
REMARK  140  A    between atoms: _336  and  _337
REMARK  141  A    between atoms: _339  and  _341
REMARK  142  A    between atoms: _341  and  _342
REMARK  143  A    between atoms: _341  and  _344
REMARK  144  A    between atoms: _344  and  _345
REMARK  145  A    between atoms: _351  and  _353
REMARK  146  A    between atoms: _353  and  _354
REMARK  147  A    between atoms: _353  and  _356
REMARK  148  A    between atoms: _356  and  _357
REMARK  149  A    between atoms: _359  and  _361
REMARK  150  A    between atoms: _361  and  _362
REMARK  151  A    between atoms: _361  and  _364
REMARK  152  A    between atoms: _364  and  _365
REMARK  153  A    between atoms: _375  and  _377
REMARK  154  A    between atoms: _377  and  _378
REMARK  155  A    between atoms: _377  and  _380
REMARK  156  A    between atoms: _380  and  _381
REMARK  157  A    between atoms: _384  and  _386
REMARK  158  A    between atoms: _386  and  _387
REMARK  159  A    between atoms: _386  and  _389
REMARK  160  A    between atoms: _391  and  _393
REMARK  161  A    between atoms: _393  and  _394
REMARK  162  A    between atoms: _393  and  _396
REMARK  163  A    between atoms: _396  and  _397
REMARK  164  A    between atoms: _402  and  _403
REMARK  165  A    between atoms: _405  and  _407
REMARK  166  A    between atoms: _407  and  _408
REMARK  167  A    between atoms: _407  and  _410
REMARK  168  A    between atoms: _410  and  _411
REMARK  169  A    between atoms: _411  and  _412
REMARK  170  A    between atoms: _412  and  _413
REMARK  171  A    between atoms: _413  and  _414
REMARK  172  A    between atoms: _418  and  _420
REMARK  173  A    between atoms: _420  and  _421
REMARK  174  A    between atoms: _420  and  _423
REMARK  175  A    between atoms: _423  and  _424
REMARK  176  A    between atoms: _429  and  _430
REMARK  177  A    between atoms: _432  and  _434
REMARK  178  A    between atoms: _434  and  _435
REMARK  179  A    between atoms: _434  and  _437
REMARK  180  A    between atoms: _437  and  _438
REMARK  181  A    between atoms: _438  and  _439
REMARK  182  A    between atoms: _439  and  _440
REMARK  183  A    between atoms: _449  and  _451
REMARK  184  A    between atoms: _451  and  _452
REMARK  185  A    between atoms: _451  and  _454
REMARK  186  A    between atoms: _457  and  _459
REMARK  187  A    between atoms: _459  and  _460
REMARK  188  A    between atoms: _459  and  _462
REMARK  189  A    between atoms: _462  and  _463
REMARK  190  A    between atoms: _466  and  _468
REMARK  191  A    between atoms: _468  and  _469
REMARK  192  A    between atoms: _468  and  _471
REMARK  193  A    between atoms: _474  and  _476
REMARK  194  A    between atoms: _476  and  _477
REMARK  195  A    between atoms: _476  and  _479
REMARK  196  A    between atoms: _479  and  _480
REMARK  197  A    between atoms: _483  and  _485
REMARK  198  A    between atoms: _485  and  _486
REMARK  199  A    between atoms: _489  and  _491
REMARK  200  A    between atoms: _491  and  _492
REMARK  201  A    between atoms: _494  and  _496
REMARK  202  A    between atoms: _496  and  _497
REMARK  203  A    between atoms: _496  and  _499
REMARK  204  A    between atoms: _499  and  _500
REMARK  205  A    between atoms: _505  and  _507
REMARK  206  A    between atoms: _507  and  _508
REMARK  207  A    between atoms: _507  and  _510
REMARK  208  A    between atoms: _510  and  _511
REMARK  209  A    between atoms: _513  and  _515
REMARK  210  A    between atoms: _515  and  _516
REMARK  211  A    between atoms: _515  and  _518
REMARK  212  A    between atoms: _518  and  _519
REMARK  213  A    between atoms: _522  and  _524
REMARK  214  A    between atoms: _524  and  _525
REMARK  215  A    between atoms: _524  and  _527
REMARK  216  A    between atoms: _527  and  _528
REMARK  217  A    between atoms: _531  and  _533
REMARK  218  A    between atoms: _533  and  _534
REMARK  219  A    between atoms: _533  and  _536
REMARK  220  A    between atoms: _536  and  _537
REMARK  221  A    between atoms: _540  and  _542
REMARK  222  A    between atoms: _542  and  _543
REMARK  223  A    between atoms: _542  and  _545
REMARK  224  A    between atoms: _545  and  _546
REMARK  225  A    between atoms: _549  and  _551
REMARK  226  A    between atoms: _551  and  _552
REMARK  227  A    between atoms: _551  and  _554
REMARK  228  A    between atoms: _554  and  _555
REMARK  229  A    between atoms: _555  and  _556
REMARK  230  A    between atoms: _561  and  _563
REMARK  231  A    between atoms: _563  and  _564
REMARK  232  A    between atoms: _563  and  _566
REMARK  233  A    between atoms: _566  and  _567
REMARK  234  A    between atoms: _570  and  _572
REMARK  235  A    between atoms: _572  and  _573
REMARK  236  A    between atoms: _572  and  _575
REMARK  237  A    between atoms: _575  and  _576
REMARK  238  A    between atoms: _581  and  _583
REMARK  239  A    between atoms: _583  and  _584
REMARK  240  A    between atoms: _583  and  _586
REMARK  241  A    between atoms: _586  and  _587
REMARK  242  A    between atoms: _589  and  _591
REMARK  243  A    between atoms: _591  and  _592
REMARK  244  A    between atoms: _591  and  _594
REMARK  245  A    between atoms: _594  and  _595
REMARK  246  A    between atoms: _595  and  _596
REMARK  247  A    between atoms: _601  and  _603
REMARK  248  A    between atoms: _603  and  _604
REMARK  249  A    between atoms: _603  and  _606
REMARK  250  A    between atoms: _606  and  _607
REMARK  251  A    between atoms: _612  and  _613
REMARK  252  A    between atoms: _615  and  _617
REMARK  253  A    between atoms: _617  and  _618
REMARK  254  A    between atoms: _617  and  _620
REMARK  255  A    between atoms: _620  and  _621
REMARK  256  A    between atoms: _624  and  _626
REMARK  257  A    between atoms: _626  and  _627
REMARK  258  A    between atoms: _626  and  _629
REMARK  259  A    between atoms: _629  and  _630
REMARK  260  A    between atoms: _630  and  _631
REMARK  261  A    between atoms: _631  and  _632
REMARK  262  A    between atoms: _632  and  _633
REMARK  263  A    between atoms: _637  and  _639
REMARK  264  A    between atoms: _639  and  _640
REMARK  265  A    between atoms: _639  and  _642
REMARK  266  A    between atoms: _642  and  _643
REMARK  267  A    between atoms: _646  and  _648
REMARK  268  A    between atoms: _648  and  _649
REMARK  269  A    between atoms: _648  and  _651
REMARK  270  A    between atoms: _651  and  _652
REMARK  271  A    between atoms: _655  and  _657
REMARK  272  A    between atoms: _657  and  _658
REMARK  273  A    between atoms: _657  and  _660
REMARK  274  A    between atoms: _663  and  _665
REMARK  275  A    between atoms: _665  and  _666
REMARK  276  A    between atoms: _665  and  _668
REMARK  277  A    between atoms: _668  and  _669
REMARK                            x       y       z     vdW  Elec       q    Type
REMARK                         _______ _______ _______ _____ _____    ______ ____
ROOT
ATOM      1  NE  ARG A   1      14.126  25.833  21.824  0.00  0.00    -0.265 N 
ATOM      2  HE  ARG A   1      14.447  26.441  22.604  0.00  0.00    +0.259 HD
ATOM      3  CZ  ARG A   1      14.095  24.522  22.043  0.00  0.00    +0.342 C 
ATOM      4  NH2 ARG A   1      14.453  24.045  23.228  0.00  0.00    -0.292 N 
ATOM      5 HH21 ARG A   1      14.756  24.696  23.981  0.00  0.00    +0.255 HD
ATOM      6 HH22 ARG A   1      14.431  23.020  23.404  0.00  0.00    +0.255 HD
ATOM      7  NH1 ARG A   1      13.702  23.687  21.091  0.00  0.00    -0.292 N 
ATOM      8 HH11 ARG A   1      13.682  22.663  21.273  0.00  0.00    +0.255 HD
ATOM      9 HH12 ARG A   1      13.414  24.056  20.162  0.00  0.00    +0.255 HD
ENDROOT
BRANCH   1  10
ATOM     10  CD  ARG A   1      13.745  26.488  20.573  0.00  0.00    +0.174 C 
BRANCH  10  11
ATOM     11  CG  ARG A   1      12.242  26.686  20.469  0.00  0.00    +0.045 C 
BRANCH  11  12
ATOM     12  CB  ARG A   1      11.870  27.606  19.308  0.00  0.00    +0.029 C 
BRANCH  12  13
ATOM     13  CA  ARG A   1      10.358  27.785  19.135  0.00  0.00    +0.133 C 
BRANCH  13  14
ATOM     14  N   ARG A   1       9.750  26.490  18.868  0.00  0.00    -0.239 NA
ATOM     15  H   ARG A   1      10.110  25.909  18.084  0.00  0.00    +0.142 HD
ENDBRANCH  13  14
BRANCH  13  16
ATOM     16  C   ARG A   1      10.064  28.819  18.055  0.00  0.00    +0.224 C 
ATOM     17  O   ARG A   1      10.729  28.863  17.018  0.00  0.00    -0.287 OA
ENDBRANCH  13  16
ENDBRANCH  12  13
ENDBRANCH  11  12
ENDBRANCH  10  11
ENDBRANCH   1  10
TORSDOF 6
REMARK  Name = ../refined-set-2016/1s19/1s19_pocket.pdb
REMARK  277 active torsions:
REMARK  status: ('A' for Active; 'I' for Inactive)
REMARK    1  A    between atoms: _1  and  _3
REMARK    2  A    between atoms: _3  and  _4
REMARK    3  A    between atoms: _3  and  _6
REMARK    4  A    between atoms: _6  and  _7
REMARK    5  A    between atoms: _10  and  _12
REMARK    6  A    between atoms: _12  and  _13
REMARK    7  A    between atoms: _12  and  _15
REMARK    8  A    between atoms: _15  and  _16
REMARK    9  A    between atoms: _21  and  _22
REMARK   10  A    between atoms: _24  and  _26
REMARK   11  A    between atoms: _26  and  _27
REMARK   12  A    between atoms: _26  and  _29
REMARK   13  A    between atoms: _29  and  _30
REMARK   14  A    between atoms: _33  and  _35
REMARK   15  A    between atoms: _35  and  _36
REMARK   16  A    between atoms: _35  and  _38
REMARK   17  A    between atoms: _38  and  _39
REMARK   18  A    between atoms: _44  and  _45
REMARK   19  A    between atoms: _47  and  _49
REMARK   20  A    between atoms: _49  and  _50
REMARK   21  A    between atoms: _49  and  _52
REMARK   22  A    between atoms: _52  and  _53
REMARK   23  A    between atoms: _59  and  _61
REMARK   24  A    between atoms: _61  and  _62
REMARK   25  A    between atoms: _61  and  _64
REMARK   26  A    between atoms: _64  and  _65
REMARK   27  A    between atoms: _71  and  _73
REMARK   28  A    between atoms: _73  and  _74
REMARK   29  A    between atoms: _73  and  _76
REMARK   30  A    between atoms: _76  and  _77
REMARK   31  A    between atoms: _77  and  _78
REMARK   32  A    between atoms: _78  and  _79
REMARK   33  A    between atoms: _88  and  _90
REMARK   34  A    between atoms: _90  and  _91
REMARK   35  A    between atoms: _90  and  _93
REMARK   36  A    between atoms: _93  and  _94
REMARK   37  A    between atoms: _94  and  _95
REMARK   38  A    between atoms: _97  and  _99
REMARK   39  A    between atoms: _99  and  _100
REMARK   40  A    between atoms: _99  and  _102
REMARK   41  A    between atoms: _102  and  _103
REMARK   42  A    between atoms: _107  and  _108
REMARK   43  A    between atoms: _113  and  _115
REMARK   44  A    between atoms: _115  and  _116
REMARK   45  A    between atoms: _115  and  _118
REMARK   46  A    between atoms: _118  and  _119
REMARK   47  A    between atoms: _124  and  _126
REMARK   48  A    between atoms: _126  and  _127
REMARK   49  A    between atoms: _126  and  _129
REMARK   50  A    between atoms: _129  and  _130
REMARK   51  A    between atoms: _133  and  _135
REMARK   52  A    between atoms: _135  and  _136
REMARK   53  A    between atoms: _139  and  _141
REMARK   54  A    between atoms: _141  and  _142
REMARK   55  A    between atoms: _141  and  _144
REMARK   56  A    between atoms: _144  and  _145
REMARK   57  A    between atoms: _148  and  _150
REMARK   58  A    between atoms: _150  and  _151
REMARK   59  A    between atoms: _150  and  _153
REMARK   60  A    between atoms: _153  and  _154
REMARK   61  A    between atoms: _157  and  _159
REMARK   62  A    between atoms: _159  and  _160
REMARK   63  A    between atoms: _159  and  _162
REMARK   64  A    between atoms: _165  and  _167
REMARK   65  A    between atoms: _167  and  _168
REMARK   66  A    between atoms: _167  and  _170
REMARK   67  A    between atoms: _170  and  _171
REMARK   68  A    between atoms: _173  and  _175
REMARK   69  A    between atoms: _175  and  _176
REMARK   70  A    between atoms: _175  and  _178
REMARK   71  A    between atoms: _178  and  _179
REMARK   72  A    between atoms: _184  and  _185
REMARK   73  A    between atoms: _187  and  _189
REMARK   74  A    between atoms: _189  and  _190
REMARK   75  A    between atoms: _189  and  _192
REMARK   76  A    between atoms: _192  and  _193
REMARK   77  A    between atoms: _195  and  _197
REMARK   78  A    between atoms: _197  and  _198
REMARK   79  A    between atoms: _197  and  _200
REMARK   80  A    between atoms: _200  and  _201
REMARK   81  A    between atoms: _204  and  _206
REMARK   82  A    between atoms: _206  and  _207
REMARK   83  A    between atoms: _206  and  _209
REMARK   84  A    between atoms: _209  and  _210
REMARK   85  A    between atoms: _210  and  _211
REMARK   86  A    between atoms: _211  and  _212
REMARK   87  A    between atoms: _212  and  _213
REMARK   88  A    between atoms: _217  and  _219
REMARK   89  A    between atoms: _219  and  _220
REMARK   90  A    between atoms: _219  and  _222
REMARK   91  A    between atoms: _225  and  _227
REMARK   92  A    between atoms: _227  and  _228
REMARK   93  A    between atoms: _231  and  _233
REMARK   94  A    between atoms: _233  and  _234
REMARK   95  A    between atoms: _233  and  _236
REMARK   96  A    between atoms: _236  and  _237
REMARK   97  A    between atoms: _240  and  _242
REMARK   98  A    between atoms: _242  and  _243
REMARK   99  A    between atoms: _242  and  _245
REMARK  100  A    between atoms: _245  and  _246
REMARK  101  A    between atoms: _246  and  _247
REMARK  102  A    between atoms: _250  and  _252
REMARK  103  A    between atoms: _252  and  _253
REMARK  104  A    between atoms: _252  and  _255
REMARK  105  A    between atoms: _258  and  _260
REMARK  106  A    between atoms: _260  and  _261
REMARK  107  A    between atoms: _260  and  _263
REMARK  108  A    between atoms: _263  and  _264
REMARK  109  A    between atoms: _267  and  _269
REMARK  110  A    between atoms: _269  and  _270
REMARK  111  A    between atoms: _269  and  _272
REMARK  112  A    between atoms: _272  and  _273
REMARK  113  A    between atoms: _273  and  _274
REMARK  114  A    between atoms: _276  and  _278
REMARK  115  A    between atoms: _278  and  _279
REMARK  116  A    between atoms: _278  and  _281
REMARK  117  A    between atoms: _281  and  _282
REMARK  118  A    between atoms: _285  and  _287
REMARK  119  A    between atoms: _287  and  _288
REMARK  120  A    between atoms: _287  and  _290
REMARK  121  A    between atoms: _290  and  _291
REMARK  122  A    between atoms: _291  and  _292
REMARK  123  A    between atoms: _292  and  _293
REMARK  124  A    between atoms: _302  and  _304
REMARK  125  A    between atoms: _304  and  _305
REMARK  126  A    between atoms: _304  and  _307
REMARK  127  A    between atoms: _307  and  _308
REMARK  128  A    between atoms: _310  and  _312
REMARK  129  A    between atoms: _312  and  _313
REMARK  130  A    between atoms: _312  and  _315
REMARK  131  A    between atoms: _315  and  _316
REMARK  132  A    between atoms: _321  and  _323
REMARK  133  A    between atoms: _323  and  _324
REMARK  134  A    between atoms: _323  and  _326
REMARK  135  A    between atoms: _326  and  _327
REMARK  136  A    between atoms: _327  and  _328
REMARK  137  A    between atoms: _331  and  _333
REMARK  138  A    between atoms: _333  and  _334
REMARK  139  A    between atoms: _333  and  _336
REMARK  140  A    between atoms: _336  and  _337
REMARK  141  A    between atoms: _339  and  _341
REMARK  142  A    between atoms: _341  and  _342
REMARK  143  A    between atoms: _341  and  _344
REMARK  144  A    between atoms: _344  and  _345
REMARK  145  A    between atoms: _351  and  _353
REMARK  146  A    between atoms: _353  and  _354
REMARK  147  A    between atoms: _353  and  _356
REMARK  148  A    between atoms: _356  and  _357
REMARK  149  A    between atoms: _359  and  _361
REMARK  150  A    between atoms: _361  and  _362
REMARK  151  A    between atoms: _361  and  _364
REMARK  152  A    between atoms: _364  and  _365
REMARK  153  A    between atoms: _375  and  _377
REMARK  154  A    between atoms: _377  and  _378
REMARK  155  A    between atoms: _377  and  _380
REMARK  156  A    between atoms: _380  and  _381
REMARK  157  A    between atoms: _384  and  _386
REMARK  158  A    between atoms: _386  and  _387
REMARK  159  A    between atoms: _386  and  _389
REMARK  160  A    between atoms: _391  and  _393
REMARK  161  A    between atoms: _393  and  _394
REMARK  162  A    between atoms: _393  and  _396
REMARK  163  A    between atoms: _396  and  _397
REMARK  164  A    between atoms: _402  and  _403
REMARK  165  A    between atoms: _405  and  _407
REMARK  166  A    between atoms: _407  and  _408
REMARK  167  A    between atoms: _407  and  _410
REMARK  168  A    between atoms: _410  and  _411
REMARK  169  A    between atoms: _411  and  _412
REMARK  170  A    between atoms: _412  and  _413
REMARK  171  A    between atoms: _413  and  _414
REMARK  172  A    between atoms: _418  and  _420
REMARK  173  A    between atoms: _420  and  _421
REMARK  174  A    between atoms: _420  and  _423
REMARK  175  A    between atoms: _423  and  _424
REMARK  176  A    between atoms: _429  and  _430
REMARK  177  A    between atoms: _432  and  _434
REMARK  178  A    between atoms: _434  and  _435
REMARK  179  A    between atoms: _434  and  _437
REMARK  180  A    between atoms: _437  and  _438
REMARK  181  A    between atoms: _438  and  _439
REMARK  182  A    between atoms: _439  and  _440
REMARK  183  A    between atoms: _449  and  _451
REMARK  184  A    between atoms: _451  and  _452
REMARK  185  A    between atoms: _451  and  _454
REMARK  186  A    between atoms: _457  and  _459
REMARK  187  A    between atoms: _459  and  _460
REMARK  188  A    between atoms: _459  and  _462
REMARK  189  A    between atoms: _462  and  _463
REMARK  190  A    between atoms: _466  and  _468
REMARK  191  A    between atoms: _468  and  _469
REMARK  192  A    between atoms: _468  and  _471
REMARK  193  A    between atoms: _474  and  _476
REMARK  194  A    between atoms: _476  and  _477
REMARK  195  A    between atoms: _476  and  _479
REMARK  196  A    between atoms: _479  and  _480
REMARK  197  A    between atoms: _483  and  _485
REMARK  198  A    between atoms: _485  and  _486
REMARK  199  A    between atoms: _489  and  _491
REMARK  200  A    between atoms: _491  and  _492
REMARK  201  A    between atoms: _494  and  _496
REMARK  202  A    between atoms: _496  and  _497
REMARK  203  A    between atoms: _496  and  _499
REMARK  204  A    between atoms: _499  and  _500
REMARK  205  A    between atoms: _505  and  _507
REMARK  206  A    between atoms: _507  and  _508
REMARK  207  A    between atoms: _507  and  _510
REMARK  208  A    between atoms: _510  and  _511
REMARK  209  A    between atoms: _513  and  _515
REMARK  210  A    between atoms: _515  and  _516
REMARK  211  A    between atoms: _515  and  _518
REMARK  212  A    between atoms: _518  and  _519
REMARK  213  A    between atoms: _522  and  _524
REMARK  214  A    between atoms: _524  and  _525
REMARK  215  A    between atoms: _524  and  _527
REMARK  216  A    between atoms: _527  and  _528
REMARK  217  A    between atoms: _531  and  _533
REMARK  218  A    between atoms: _533  and  _534
REMARK  219  A    between atoms: _533  and  _536
REMARK  220  A    between atoms: _536  and  _537
REMARK  221  A    between atoms: _540  and  _542
REMARK  222  A    between atoms: _542  and  _543
REMARK  223  A    between atoms: _542  and  _545
REMARK  224  A    between atoms: _545  and  _546
REMARK  225  A    between atoms: _549  and  _551
REMARK  226  A    between atoms: _551  and  _552
REMARK  227  A    between atoms: _551  and  _554
REMARK  228  A    between atoms: _554  and  _555
REMARK  229  A    between atoms: _555  and  _556
REMARK  230  A    between atoms: _561  and  _563
REMARK  231  A    between atoms: _563  and  _564
REMARK  232  A    between atoms: _563  and  _566
REMARK  233  A    between atoms: _566  and  _567
REMARK  234  A    between atoms: _570  and  _572
REMARK  235  A    between atoms: _572  and  _573
REMARK  236  A    between atoms: _572  and  _575
REMARK  237  A    between atoms: _575  and  _576
REMARK  238  A    between atoms: _581  and  _583
REMARK  239  A    between atoms: _583  and  _584
REMARK  240  A    between atoms: _583  and  _586
REMARK  241  A    between atoms: _586  and  _587
REMARK  242  A    between atoms: _589  and  _591
REMARK  243  A    between atoms: _591  and  _592
REMARK  244  A    between atoms: _591  and  _594
REMARK  245  A    between atoms: _594  and  _595
REMARK  246  A    between atoms: _595  and  _596
REMARK  247  A    between atoms: _601  and  _603
REMARK  248  A    between atoms: _603  and  _604
REMARK  249  A    between atoms: _603  and  _606
REMARK  250  A    between atoms: _606  and  _607
REMARK  251  A    between atoms: _612  and  _613
REMARK  252  A    between atoms: _615  and  _617
REMARK  253  A    between atoms: _617  and  _618
REMARK  254  A    between atoms: _617  and  _620
REMARK  255  A    between atoms: _620  and  _621
REMARK  256  A    between atoms: _624  and  _626
REMARK  257  A    between atoms: _626  and  _627
REMARK  258  A    between atoms: _626  and  _629
REMARK  259  A    between atoms: _629  and  _630
REMARK  260  A    between atoms: _630  and  _631
REMARK  261  A    between atoms: _631  and  _632
REMARK  262  A    between atoms: _632  and  _633
REMARK  263  A    between atoms: _637  and  _639
REMARK  264  A    between atoms: _639  and  _640
REMARK  265  A    between atoms: _639  and  _642
REMARK  266  A    between atoms: _642  and  _643
REMARK  267  A    between atoms: _646  and  _648
REMARK  268  A    between atoms: _648  and  _649
REMARK  269  A    between atoms: _648  and  _651
REMARK  270  A    between atoms: _651  and  _652
REMARK  271  A    between atoms: _655  and  _657
REMARK  272  A    between atoms: _657  and  _658
REMARK  273  A    between atoms: _657  and  _660
REMARK  274  A    between atoms: _663  and  _665
REMARK  275  A    between atoms: _665  and  _666
REMARK  276  A    between atoms: _665  and  _668
REMARK  277  A    between atoms: _668  and  _669
REMARK                            x       y       z     vdW  Elec       q    Type
REMARK                         _______ _______ _______ _____ _____    ______ ____
ROOT
ATOM      1  CA  ASP A   7       4.958  17.614  29.839  0.00  0.00    +0.160 C 
ENDROOT
BRANCH   1   2
ATOM      2  C   ASP A   7       6.209  17.279  30.642  0.00  0.00    +0.241 C 
ATOM      3  O   ASP A   7       6.213  16.340  31.436  0.00  0.00    -0.273 OA
ATOM      4  N   LEU A   8       7.265  18.057  30.428  0.00  0.00    -0.297 N 
ATOM      5  H   LEU A   8       7.191  18.827  29.733  0.00  0.00    +0.150 HD
BRANCH   4   6
ATOM      6  CA  LEU A   8       8.529  17.864  31.139  0.00  0.00    +0.149 C 
BRANCH   6   7
ATOM      7  C   LEU A   8       8.323  18.010  32.646  0.00  0.00    +0.241 C 
ATOM      8  O   LEU A   8       8.802  17.193  33.435  0.00  0.00    -0.273 OA
ATOM      9  N   VAL A   9       7.606  19.057  33.042  0.00  0.00    -0.297 N 
ATOM     10  H   VAL A   9       7.230  19.714  32.329  0.00  0.00    +0.150 HD
BRANCH   9  11
ATOM     11  CA  VAL A   9       7.334  19.307  34.454  0.00  0.00    +0.149 C 
BRANCH  11  12
ATOM     12  C   VAL A   9       6.373  18.267  35.031  0.00  0.00    +0.241 C 
ATOM     13  O   VAL A   9       6.533  17.823  36.167  0.00  0.00    -0.273 OA
ATOM     14  N   SER A  10       5.370  17.883  34.251  0.00  0.00    -0.295 N 
ATOM     15  H   SER A  10       5.272  18.302  33.304  0.00  0.00    +0.150 HD
BRANCH  14  16
ATOM     16  CA  SER A  10       4.399  16.881  34.697  0.00  0.00    +0.178 C 
BRANCH  16  17
ATOM     17  C   SER A  10       5.139  15.560  34.948  0.00  0.00    +0.243 C 
ATOM     18  O   SER A  10       4.941  14.902  35.969  0.00  0.00    -0.273 OA
ATOM     19  N   TYR A  11       5.990  15.188  33.998  0.00  0.00    -0.297 N 
ATOM     20  H   TYR A  11       6.088  15.788  33.155  0.00  0.00    +0.150 HD
BRANCH  19  21
ATOM     21  CA  TYR A  11       6.795  13.969  34.088  0.00  0.00    +0.153 C 
BRANCH  21  22
ATOM     22  C   TYR A  11       7.663  14.024  35.343  0.00  0.00    +0.241 C 
ATOM     23  O   TYR A  11       7.776  13.043  36.085  0.00  0.00    -0.273 OA
ATOM     24  N   SER A  12       8.271  15.183  35.573  0.00  0.00    -0.295 N 
ATOM     25  H   SER A  12       8.119  15.975  34.916  0.00  0.00    +0.150 HD
BRANCH  24  26
ATOM     26  CA  SER A  12       9.144  15.371  36.721  0.00  0.00    +0.178 C 
BRANCH  26  27
ATOM     27  C   SER A  12       8.403  15.278  38.043  0.00  0.00    +0.243 C 
ATOM     28  O   SER A  12       8.950  14.782  39.026  0.00  0.00    -0.273 OA
ATOM     29  N   ILE A  13       7.160  15.750  38.075  0.00  0.00    -0.298 N 
ATOM     30  H   ILE A  13       6.744  16.173  37.221  0.00  0.00    +0.150 HD
BRANCH  29  31
ATOM     31  CA  ILE A  13       6.379  15.675  39.306  0.00  0.00    +0.137 C 
BRANCH  31  32
ATOM     32  CB  ILE A  13       5.031  16.430  39.182  0.00  0.00    +0.026 C 
ATOM     33  CG2 ILE A  13       4.124  16.092  40.365  0.00  0.00    +0.002 C 
BRANCH  32  34
ATOM     34  CG1 ILE A  13       5.284  17.938  39.133  0.00  0.00    +0.002 C 
ATOM     35  CD1 ILE A  13       4.023  18.770  38.946  0.00  0.00    +0.000 C 
ENDBRANCH  32  34
ENDBRANCH  31  32
BRANCH  31  36
ATOM     36  C   ILE A  13       6.114  14.210  39.628  0.00  0.00    +0.227 C 
ATOM     37  O   ILE A  13       6.081  13.816  40.796  0.00  0.00    -0.286 OA
ENDBRANCH  31  36
ENDBRANCH  29  31
ENDBRANCH  26  27
BRANCH  26  38
ATOM     38  CB  SER A  12       9.869  16.713  36.615  0.00  0.00    +0.166 C 
BRANCH  38  39
ATOM     39  OG  SER A  12      10.657  16.755  35.437  0.00  0.00    -0.380 OA
ATOM     40  H   SER A  12      10.073  16.639  34.646  0.00  0.00    +0.211 HD
ENDBRANCH  38  39
ENDBRANCH  26  38
ENDBRANCH  24  26
ENDBRANCH  21  22
BRANCH  21  41
ATOM     41  CB  TYR A  11       7.685  13.869  32.851  0.00  0.00    +0.055 C 
BRANCH  41  42
ATOM     42  CG  TYR A  11       8.808  12.846  32.898  0.00  0.00    -0.020 A 
ATOM     43  CD2 TYR A  11      10.080  13.202  33.351  0.00  0.00    -0.001 A 
ATOM     44  CE2 TYR A  11      11.149  12.307  33.294  0.00  0.00    +0.036 A 
ATOM     45  CZ  TYR A  11      10.948  11.038  32.781  0.00  0.00    +0.134 A 
ATOM     46  CE1 TYR A  11       9.691  10.651  32.338  0.00  0.00    +0.036 A 
ATOM     47  CD1 TYR A  11       8.627  11.555  32.401  0.00  0.00    -0.001 A 
BRANCH  45  48
ATOM     48  OH  TYR A  11      12.016  10.177  32.663  0.00  0.00    -0.506 OA
ATOM     49  HH  TYR A  11      11.705   9.318  32.282  0.00  0.00    +0.292 HD
ENDBRANCH  45  48
ENDBRANCH  41  42
ENDBRANCH  21  41
ENDBRANCH  19  21
ENDBRANCH  16  17
BRANCH  16  50
ATOM     50  CB  SER A  10       3.317  16.689  33.624  0.00  0.00    +0.166 C 
BRANCH  50  51
ATOM     51  OG  SER A  10       2.233  15.923  34.116  0.00  0.00    -0.380 OA
ATOM     52  H   SER A  10       2.561  15.032  34.396  0.00  0.00    +0.211 HD
ENDBRANCH  50  51
ENDBRANCH  16  50
ENDBRANCH  14  16
ENDBRANCH  11  12
BRANCH  11  53
ATOM     53  CB  VAL A   9       6.752  20.726  34.653  0.00  0.00    +0.027 C 
ATOM     54  CG2 VAL A   9       6.169  20.876  36.060  0.00  0.00    +0.002 C 
ATOM     55  CG1 VAL A   9       7.853  21.761  34.427  0.00  0.00    +0.002 C 
ENDBRANCH  11  53
ENDBRANCH   9  11
ENDBRANCH   6   7
BRANCH   6  56
ATOM     56  CB  LEU A   8       9.565  18.890  30.659  0.00  0.00    +0.029 C 
BRANCH  56  57
ATOM     57  CG  LEU A   8      10.861  18.978  31.474  0.00  0.00    +0.002 C 
ATOM     58  CD2 LEU A   8      11.556  17.612  31.475  0.00  0.00    +0.000 C 
ATOM     59  CD1 LEU A   8      11.773  20.059  30.891  0.00  0.00    +0.000 C 
ENDBRANCH  56  57
ENDBRANCH   6  56
ENDBRANCH   4   6
ENDBRANCH   1   2
BRANCH   1  62
ATOM     60  C   ALA A   6       4.479  19.759  30.904  0.00  0.00    +0.241 C 
ATOM     61  O   ALA A   6       4.317  19.227  31.999  0.00  0.00    -0.273 OA
ATOM     62  N   ASP A   7       4.782  19.068  29.804  0.00  0.00    -0.297 N 
ATOM     63  H   ASP A   7       4.896  19.572  28.902  0.00  0.00    +0.150 HD
BRANCH  60  64
ATOM     64  CA  ALA A   6       4.329  21.269  30.753  0.00  0.00    +0.149 C 
ATOM     65  CB  ALA A   6       2.951  21.598  30.186  0.00  0.00    +0.031 C 
BRANCH  64  68
ATOM     66  C   LEU A   5       6.662  21.725  30.235  0.00  0.00    +0.241 C 
ATOM     67  O   LEU A   5       7.033  21.287  31.324  0.00  0.00    -0.273 OA
ATOM     68  N   ALA A   6       5.381  21.771  29.872  0.00  0.00    -0.297 N 
ATOM     69  H   ALA A   6       5.126  22.171  28.946  0.00  0.00    +0.150 HD
BRANCH  66  70
ATOM     70  CA  LEU A   5       7.679  22.241  29.226  0.00  0.00    +0.149 C 
BRANCH  70  73
ATOM     71  C   HIS A   4       7.123  20.793  27.370  0.00  0.00    +0.241 C 
ATOM     72  O   HIS A   4       7.376  19.794  28.046  0.00  0.00    -0.273 OA
ATOM     73  N   LEU A   5       7.237  22.027  27.854  0.00  0.00    -0.297 N 
ATOM     74  H   LEU A   5       7.010  22.843  27.250  0.00  0.00    +0.150 HD
BRANCH  71  75
ATOM     75  CA  HIS A   4       6.659  20.657  25.914  0.00  0.00    +0.155 C 
BRANCH  75  78
ATOM     76  C   PRO A   3       4.292  21.147  26.195  0.00  0.00    +0.241 C 
ATOM     77  O   PRO A   3       4.148  20.216  26.988  0.00  0.00    -0.273 OA
ATOM     78  N   HIS A   4       5.460  21.440  25.634  0.00  0.00    -0.297 N 
ATOM     79  H   HIS A   4       5.521  22.246  24.980  0.00  0.00    +0.150 HD
BRANCH  76  83
ATOM     80  C   LEU A   2       3.945  24.004  26.984  0.00  0.00    +0.244 C 
ATOM     81  O   LEU A   2       4.111  23.329  28.001  0.00  0.00    -0.273 OA
ATOM     82  N   PRO A   3       3.448  23.472  25.856  0.00  0.00    -0.272 N 
ATOM     83  CA  PRO A   3       3.106  22.045  25.812  0.00  0.00    +0.152 C 
ATOM     84  CB  PRO A   3       2.671  21.840  24.362  0.00  0.00    +0.031 C 
ATOM     85  CG  PRO A   3       2.068  23.171  24.008  0.00  0.00    +0.024 C 
ATOM     86  CD  PRO A   3       3.062  24.143  24.600  0.00  0.00    +0.094 C 
BRANCH  80  87
ATOM     87  CA  LEU A   2       4.291  25.494  26.983  0.00  0.00    +0.149 C 
BRANCH  87  90
ATOM     88  C   MET A   1       6.260  25.465  25.555  0.00  0.00    +0.238 C 
ATOM     89  O   MET A   1       6.784  24.578  26.231  0.00  0.00    -0.274 OA
ATOM     90  N   LEU A   2       5.050  25.953  25.822  0.00  0.00    -0.297 N 
ATOM     91  H   LEU A   2       4.639  26.673  25.194  0.00  0.00    +0.150 HD
BRANCH  88  92
ATOM     92  CA  MET A   1       6.988  26.041  24.345  0.00  0.00    +0.146 C 
BRANCH  92  93
ATOM     93  N   MET A   1       6.165  26.958  23.557  0.00  0.00    -0.238 NA
ATOM     94  H   MET A   1       6.083  27.950  23.858  0.00  0.00    +0.142 HD
ENDBRANCH  92  93
BRANCH  92  95
ATOM     95  CB  MET A   1       8.263  26.752  24.822  0.00  0.00    +0.038 C 
BRANCH  95  96
ATOM     96  CG  MET A   1       9.381  26.863  23.776  0.00  0.00    +0.060 C 
BRANCH  96  97
ATOM     97  SD  MET A   1      10.022  25.242  23.252  0.00  0.00    -0.139 S 
ATOM     98  CE  MET A   1      10.815  24.696  24.765  0.00  0.00    +0.069 C 
ENDBRANCH  96  97
ENDBRANCH  95  96
ENDBRANCH  92  95
ENDBRANCH  88  92
ENDBRANCH  87  90
BRANCH  87  99
ATOM     99  CB  LEU A   2       3.012  26.331  27.155  0.00  0.00    +0.029 C 
BRANCH  99 100
ATOM    100  CG  LEU A   2       2.196  26.031  28.421  0.00  0.00    +0.002 C 
ATOM    101  CD2 LEU A   2       3.081  26.205  29.647  0.00  0.00    +0.000 C 
ATOM    102  CD1 LEU A   2       0.990  26.959  28.503  0.00  0.00    +0.000 C 
ENDBRANCH  99 100
ENDBRANCH  87  99
ENDBRANCH  80  87
ENDBRANCH  76  83
ENDBRANCH  75  78
BRANCH  75 103
ATOM    103  CB  HIS A   4       7.796  21.074  24.970  0.00  0.00    +0.076 C 
BRANCH 103 104
ATOM    104  CG  HIS A   4       9.080  20.339  25.212  0.00  0.00    +0.082 A 
ATOM    105  CD2 HIS A   4      10.218  20.717  25.840  0.00  0.00    +0.115 A 
ATOM    106  NE2 HIS A   4      11.072  19.641  25.816  0.00  0.00    -0.221 NA
ATOM    107  CE1 HIS A   4      10.480  18.637  25.194  0.00  0.00    +0.199 A 
ATOM    108  ND1 HIS A   4       9.277  19.032  24.819  0.00  0.00    -0.227 NA
ENDBRANCH 103 104
ENDBRANCH  75 103
ENDBRANCH  71  75
ENDBRANCH  70  73
BRANCH  70 109
ATOM    109  CB  LEU A   5       7.974  23.723  29.472  0.00  0.00    +0.029 C 
BRANCH 109 110
ATOM    110  CG  LEU A   5       9.151  24.299  28.670  0.00  0.00    +0.002 C 
ATOM    111  CD2 LEU A   5       9.458  25.708  29.162  0.00  0.00    +0.000 C 
ATOM    112  CD1 LEU A   5      10.381  23.416  28.839  0.00  0.00    +0.000 C 
ENDBRANCH 109 110
ENDBRANCH  70 109
ENDBRANCH  66  70
ENDBRANCH  64  68
ENDBRANCH  60  64
ENDBRANCH   1  62
BRANCH   1 113
ATOM    113  CB  ASP A   7       5.093  17.043  28.423  0.00  0.00    +0.143 C 
BRANCH 113 114
ATOM    114  CG  ASP A   7       3.763  16.976  27.682  0.00  0.00    +0.367 C 
ATOM    115  OD2 ASP A   7       2.700  17.124  28.321  0.00  0.00    -0.246 OA
ATOM    116  OD1 ASP A   7       3.787  16.767  26.455  0.00  0.00    -0.246 OA
ENDBRANCH 113 114
ENDBRANCH   1 113
TORSDOF 48
REMARK  Name = ../refined-set-2016/1s19/1s19_pocket.pdb
REMARK  277 active torsions:
REMARK  status: ('A' for Active; 'I' for Inactive)
REMARK    1  A    between atoms: _1  and  _3
REMARK    2  A    between atoms: _3  and  _4
REMARK    3  A    between atoms: _3  and  _6
REMARK    4  A    between atoms: _6  and  _7
REMARK    5  A    between atoms: _10  and  _12
REMARK    6  A    between atoms: _12  and  _13
REMARK    7  A    between atoms: _12  and  _15
REMARK    8  A    between atoms: _15  and  _16
REMARK    9  A    between atoms: _21  and  _22
REMARK   10  A    between atoms: _24  and  _26
REMARK   11  A    between atoms: _26  and  _27
REMARK   12  A    between atoms: _26  and  _29
REMARK   13  A    between atoms: _29  and  _30
REMARK   14  A    between atoms: _33  and  _35
REMARK   15  A    between atoms: _35  and  _36
REMARK   16  A    between atoms: _35  and  _38
REMARK   17  A    between atoms: _38  and  _39
REMARK   18  A    between atoms: _44  and  _45
REMARK   19  A    between atoms: _47  and  _49
REMARK   20  A    between atoms: _49  and  _50
REMARK   21  A    between atoms: _49  and  _52
REMARK   22  A    between atoms: _52  and  _53
REMARK   23  A    between atoms: _59  and  _61
REMARK   24  A    between atoms: _61  and  _62
REMARK   25  A    between atoms: _61  and  _64
REMARK   26  A    between atoms: _64  and  _65
REMARK   27  A    between atoms: _71  and  _73
REMARK   28  A    between atoms: _73  and  _74
REMARK   29  A    between atoms: _73  and  _76
REMARK   30  A    between atoms: _76  and  _77
REMARK   31  A    between atoms: _77  and  _78
REMARK   32  A    between atoms: _78  and  _79
REMARK   33  A    between atoms: _88  and  _90
REMARK   34  A    between atoms: _90  and  _91
REMARK   35  A    between atoms: _90  and  _93
REMARK   36  A    between atoms: _93  and  _94
REMARK   37  A    between atoms: _94  and  _95
REMARK   38  A    between atoms: _97  and  _99
REMARK   39  A    between atoms: _99  and  _100
REMARK   40  A    between atoms: _99  and  _102
REMARK   41  A    between atoms: _102  and  _103
REMARK   42  A    between atoms: _107  and  _108
REMARK   43  A    between atoms: _113  and  _115
REMARK   44  A    between atoms: _115  and  _116
REMARK   45  A    between atoms: _115  and  _118
REMARK   46  A    between atoms: _118  and  _119
REMARK   47  A    between atoms: _124  and  _126
REMARK   48  A    between atoms: _126  and  _127
REMARK   49  A    between atoms: _126  and  _129
REMARK   50  A    between atoms: _129  and  _130
REMARK   51  A    between atoms: _133  and  _135
REMARK   52  A    between atoms: _135  and  _136
REMARK   53  A    between atoms: _139  and  _141
REMARK   54  A    between atoms: _141  and  _142
REMARK   55  A    between atoms: _141  and  _144
REMARK   56  A    between atoms: _144  and  _145
REMARK   57  A    between atoms: _148  and  _150
REMARK   58  A    between atoms: _150  and  _151
REMARK   59  A    between atoms: _150  and  _153
REMARK   60  A    between atoms: _153  and  _154
REMARK   61  A    between atoms: _157  and  _159
REMARK   62  A    between atoms: _159  and  _160
REMARK   63  A    between atoms: _159  and  _162
REMARK   64  A    between atoms: _165  and  _167
REMARK   65  A    between atoms: _167  and  _168
REMARK   66  A    between atoms: _167  and  _170
REMARK   67  A    between atoms: _170  and  _171
REMARK   68  A    between atoms: _173  and  _175
REMARK   69  A    between atoms: _175  and  _176
REMARK   70  A    between atoms: _175  and  _178
REMARK   71  A    between atoms: _178  and  _179
REMARK   72  A    between atoms: _184  and  _185
REMARK   73  A    between atoms: _187  and  _189
REMARK   74  A    between atoms: _189  and  _190
REMARK   75  A    between atoms: _189  and  _192
REMARK   76  A    between atoms: _192  and  _193
REMARK   77  A    between atoms: _195  and  _197
REMARK   78  A    between atoms: _197  and  _198
REMARK   79  A    between atoms: _197  and  _200
REMARK   80  A    between atoms: _200  and  _201
REMARK   81  A    between atoms: _204  and  _206
REMARK   82  A    between atoms: _206  and  _207
REMARK   83  A    between atoms: _206  and  _209
REMARK   84  A    between atoms: _209  and  _210
REMARK   85  A    between atoms: _210  and  _211
REMARK   86  A    between atoms: _211  and  _212
REMARK   87  A    between atoms: _212  and  _213
REMARK   88  A    between atoms: _217  and  _219
REMARK   89  A    between atoms: _219  and  _220
REMARK   90  A    between atoms: _219  and  _222
REMARK   91  A    between atoms: _225  and  _227
REMARK   92  A    between atoms: _227  and  _228
REMARK   93  A    between atoms: _231  and  _233
REMARK   94  A    between atoms: _233  and  _234
REMARK   95  A    between atoms: _233  and  _236
REMARK   96  A    between atoms: _236  and  _237
REMARK   97  A    between atoms: _240  and  _242
REMARK   98  A    between atoms: _242  and  _243
REMARK   99  A    between atoms: _242  and  _245
REMARK  100  A    between atoms: _245  and  _246
REMARK  101  A    between atoms: _246  and  _247
REMARK  102  A    between atoms: _250  and  _252
REMARK  103  A    between atoms: _252  and  _253
REMARK  104  A    between atoms: _252  and  _255
REMARK  105  A    between atoms: _258  and  _260
REMARK  106  A    between atoms: _260  and  _261
REMARK  107  A    between atoms: _260  and  _263
REMARK  108  A    between atoms: _263  and  _264
REMARK  109  A    between atoms: _267  and  _269
REMARK  110  A    between atoms: _269  and  _270
REMARK  111  A    between atoms: _269  and  _272
REMARK  112  A    between atoms: _272  and  _273
REMARK  113  A    between atoms: _273  and  _274
REMARK  114  A    between atoms: _276  and  _278
REMARK  115  A    between atoms: _278  and  _279
REMARK  116  A    between atoms: _278  and  _281
REMARK  117  A    between atoms: _281  and  _282
REMARK  118  A    between atoms: _285  and  _287
REMARK  119  A    between atoms: _287  and  _288
REMARK  120  A    between atoms: _287  and  _290
REMARK  121  A    between atoms: _290  and  _291
REMARK  122  A    between atoms: _291  and  _292
REMARK  123  A    between atoms: _292  and  _293
REMARK  124  A    between atoms: _302  and  _304
REMARK  125  A    between atoms: _304  and  _305
REMARK  126  A    between atoms: _304  and  _307
REMARK  127  A    between atoms: _307  and  _308
REMARK  128  A    between atoms: _310  and  _312
REMARK  129  A    between atoms: _312  and  _313
REMARK  130  A    between atoms: _312  and  _315
REMARK  131  A    between atoms: _315  and  _316
REMARK  132  A    between atoms: _321  and  _323
REMARK  133  A    between atoms: _323  and  _324
REMARK  134  A    between atoms: _323  and  _326
REMARK  135  A    between atoms: _326  and  _327
REMARK  136  A    between atoms: _327  and  _328
REMARK  137  A    between atoms: _331  and  _333
REMARK  138  A    between atoms: _333  and  _334
REMARK  139  A    between atoms: _333  and  _336
REMARK  140  A    between atoms: _336  and  _337
REMARK  141  A    between atoms: _339  and  _341
REMARK  142  A    between atoms: _341  and  _342
REMARK  143  A    between atoms: _341  and  _344
REMARK  144  A    between atoms: _344  and  _345
REMARK  145  A    between atoms: _351  and  _353
REMARK  146  A    between atoms: _353  and  _354
REMARK  147  A    between atoms: _353  and  _356
REMARK  148  A    between atoms: _356  and  _357
REMARK  149  A    between atoms: _359  and  _361
REMARK  150  A    between atoms: _361  and  _362
REMARK  151  A    between atoms: _361  and  _364
REMARK  152  A    between atoms: _364  and  _365
REMARK  153  A    between atoms: _375  and  _377
REMARK  154  A    between atoms: _377  and  _378
REMARK  155  A    between atoms: _377  and  _380
REMARK  156  A    between atoms: _380  and  _381
REMARK  157  A    between atoms: _384  and  _386
REMARK  158  A    between atoms: _386  and  _387
REMARK  159  A    between atoms: _386  and  _389
REMARK  160  A    between atoms: _391  and  _393
REMARK  161  A    between atoms: _393  and  _394
REMARK  162  A    between atoms: _393  and  _396
REMARK  163  A    between atoms: _396  and  _397
REMARK  164  A    between atoms: _402  and  _403
REMARK  165  A    between atoms: _405  and  _407
REMARK  166  A    between atoms: _407  and  _408
REMARK  167  A    between atoms: _407  and  _410
REMARK  168  A    between atoms: _410  and  _411
REMARK  169  A    between atoms: _411  and  _412
REMARK  170  A    between atoms: _412  and  _413
REMARK  171  A    between atoms: _413  and  _414
REMARK  172  A    between atoms: _418  and  _420
REMARK  173  A    between atoms: _420  and  _421
REMARK  174  A    between atoms: _420  and  _423
REMARK  175  A    between atoms: _423  and  _424
REMARK  176  A    between atoms: _429  and  _430
REMARK  177  A    between atoms: _432  and  _434
REMARK  178  A    between atoms: _434  and  _435
REMARK  179  A    between atoms: _434  and  _437
REMARK  180  A    between atoms: _437  and  _438
REMARK  181  A    between atoms: _438  and  _439
REMARK  182  A    between atoms: _439  and  _440
REMARK  183  A    between atoms: _449  and  _451
REMARK  184  A    between atoms: _451  and  _452
REMARK  185  A    between atoms: _451  and  _454
REMARK  186  A    between atoms: _457  and  _459
REMARK  187  A    between atoms: _459  and  _460
REMARK  188  A    between atoms: _459  and  _462
REMARK  189  A    between atoms: _462  and  _463
REMARK  190  A    between atoms: _466  and  _468
REMARK  191  A    between atoms: _468  and  _469
REMARK  192  A    between atoms: _468  and  _471
REMARK  193  A    between atoms: _474  and  _476
REMARK  194  A    between atoms: _476  and  _477
REMARK  195  A    between atoms: _476  and  _479
REMARK  196  A    between atoms: _479  and  _480
REMARK  197  A    between atoms: _483  and  _485
REMARK  198  A    between atoms: _485  and  _486
REMARK  199  A    between atoms: _489  and  _491
REMARK  200  A    between atoms: _491  and  _492
REMARK  201  A    between atoms: _494  and  _496
REMARK  202  A    between atoms: _496  and  _497
REMARK  203  A    between atoms: _496  and  _499
REMARK  204  A    between atoms: _499  and  _500
REMARK  205  A    between atoms: _505  and  _507
REMARK  206  A    between atoms: _507  and  _508
REMARK  207  A    between atoms: _507  and  _510
REMARK  208  A    between atoms: _510  and  _511
REMARK  209  A    between atoms: _513  and  _515
REMARK  210  A    between atoms: _515  and  _516
REMARK  211  A    between atoms: _515  and  _518
REMARK  212  A    between atoms: _518  and  _519
REMARK  213  A    between atoms: _522  and  _524
REMARK  214  A    between atoms: _524  and  _525
REMARK  215  A    between atoms: _524  and  _527
REMARK  216  A    between atoms: _527  and  _528
REMARK  217  A    between atoms: _531  and  _533
REMARK  218  A    between atoms: _533  and  _534
REMARK  219  A    between atoms: _533  and  _536
REMARK  220  A    between atoms: _536  and  _537
REMARK  221  A    between atoms: _540  and  _542
REMARK  222  A    between atoms: _542  and  _543
REMARK  223  A    between atoms: _542  and  _545
REMARK  224  A    between atoms: _545  and  _546
REMARK  225  A    between atoms: _549  and  _551
REMARK  226  A    between atoms: _551  and  _552
REMARK  227  A    between atoms: _551  and  _554
REMARK  228  A    between atoms: _554  and  _555
REMARK  229  A    between atoms: _555  and  _556
REMARK  230  A    between atoms: _561  and  _563
REMARK  231  A    between atoms: _563  and  _564
REMARK  232  A    between atoms: _563  and  _566
REMARK  233  A    between atoms: _566  and  _567
REMARK  234  A    between atoms: _570  and  _572
REMARK  235  A    between atoms: _572  and  _573
REMARK  236  A    between atoms: _572  and  _575
REMARK  237  A    between atoms: _575  and  _576
REMARK  238  A    between atoms: _581  and  _583
REMARK  239  A    between atoms: _583  and  _584
REMARK  240  A    between atoms: _583  and  _586
REMARK  241  A    between atoms: _586  and  _587
REMARK  242  A    between atoms: _589  and  _591
REMARK  243  A    between atoms: _591  and  _592
REMARK  244  A    between atoms: _591  and  _594
REMARK  245  A    between atoms: _594  and  _595
REMARK  246  A    between atoms: _595  and  _596
REMARK  247  A    between atoms: _601  and  _603
REMARK  248  A    between atoms: _603  and  _604
REMARK  249  A    between atoms: _603  and  _606
REMARK  250  A    between atoms: _606  and  _607
REMARK  251  A    between atoms: _612  and  _613
REMARK  252  A    between atoms: _615  and  _617
REMARK  253  A    between atoms: _617  and  _618
REMARK  254  A    between atoms: _617  and  _620
REMARK  255  A    between atoms: _620  and  _621
REMARK  256  A    between atoms: _624  and  _626
REMARK  257  A    between atoms: _626  and  _627
REMARK  258  A    between atoms: _626  and  _629
REMARK  259  A    between atoms: _629  and  _630
REMARK  260  A    between atoms: _630  and  _631
REMARK  261  A    between atoms: _631  and  _632
REMARK  262  A    between atoms: _632  and  _633
REMARK  263  A    between atoms: _637  and  _639
REMARK  264  A    between atoms: _639  and  _640
REMARK  265  A    between atoms: _639  and  _642
REMARK  266  A    between atoms: _642  and  _643
REMARK  267  A    between atoms: _646  and  _648
REMARK  268  A    between atoms: _648  and  _649
REMARK  269  A    between atoms: _648  and  _651
REMARK  270  A    between atoms: _651  and  _652
REMARK  271  A    between atoms: _655  and  _657
REMARK  272  A    between atoms: _657  and  _658
REMARK  273  A    between atoms: _657  and  _660
REMARK  274  A    between atoms: _663  and  _665
REMARK  275  A    between atoms: _665  and  _666
REMARK  276  A    between atoms: _665  and  _668
REMARK  277  A    between atoms: _668  and  _669
REMARK                            x       y       z     vdW  Elec       q    Type
REMARK                         _______ _______ _______ _____ _____    ______ ____
ROOT
ATOM      1  CA  LYS A   1       9.369  11.225  39.431  0.00  0.00    +0.145 C 
ENDROOT
BRANCH   1   2
ATOM      2  C   LYS A   1       9.605  11.692  40.868  0.00  0.00    +0.238 C 
ATOM      3  O   LYS A   1      10.124  10.944  41.704  0.00  0.00    -0.274 OA
ATOM      4  N   VAL A   2       9.221  12.932  41.154  0.00  0.00    -0.298 N 
ATOM      5  H   VAL A   2       8.803  13.522  40.406  0.00  0.00    +0.150 HD
BRANCH   4   6
ATOM      6  CA  VAL A   2       9.374  13.481  42.494  0.00  0.00    +0.137 C 
BRANCH   6   7
ATOM      7  CB  VAL A   2       8.999  14.981  42.529  0.00  0.00    +0.026 C 
ATOM      8  CG2 VAL A   2       8.901  15.466  43.971  0.00  0.00    +0.002 C 
ATOM      9  CG1 VAL A   2      10.051  15.789  41.785  0.00  0.00    +0.002 C 
ENDBRANCH   6   7
BRANCH   6  10
ATOM     10  C   VAL A   2       8.493  12.713  43.485  0.00  0.00    +0.227 C 
ATOM     11  O   VAL A   2       8.900  12.443  44.612  0.00  0.00    -0.286 OA
ENDBRANCH   6  10
ENDBRANCH   4   6
ENDBRANCH   1   2
BRANCH   1  12
ATOM     12  N   LYS A   1       8.107  11.756  38.911  0.00  0.00    -0.238 NA
ATOM     13  H   LYS A   1       8.124  12.455  38.141  0.00  0.00    +0.142 HD
ENDBRANCH   1  12
BRANCH   1  14
ATOM     14  CB  LYS A   1      10.536  11.656  38.536  0.00  0.00    +0.026 C 
BRANCH  14  15
ATOM     15  CG  LYS A   1      10.434  11.134  37.100  0.00  0.00    -0.000 C 
BRANCH  15  16
ATOM     16  CD  LYS A   1      10.270   9.604  37.060  0.00  0.00    -0.024 C 
BRANCH  16  17
ATOM     17  CE  LYS A   1      10.172   9.092  35.620  0.00  0.00    -0.086 C 
BRANCH  17  18
ATOM     18  NZ  LYS A   1      10.014   7.604  35.564  0.00  0.00    +0.380 N 
ATOM     19  HZ1 LYS A   1       9.146   7.330  36.067  0.00  0.00    -0.089 HD
ATOM     20  HZ2 LYS A   1      10.835   7.152  36.015  0.00  0.00    -0.089 HD
ATOM     21  HZ3 LYS A   1       9.952   7.300  34.571  0.00  0.00    -0.089 HD
ENDBRANCH  17  18
ENDBRANCH  16  17
ENDBRANCH  15  16
ENDBRANCH  14  15
ENDBRANCH   1  14
TORSDOF 10
REMARK  Name = ../refined-set-2016/1s19/1s19_pocket.pdb
REMARK  277 active torsions:
REMARK  status: ('A' for Active; 'I' for Inactive)
REMARK    1  A    between atoms: _1  and  _3
REMARK    2  A    between atoms: _3  and  _4
REMARK    3  A    between atoms: _3  and  _6
REMARK    4  A    between atoms: _6  and  _7
REMARK    5  A    between atoms: _10  and  _12
REMARK    6  A    between atoms: _12  and  _13
REMARK    7  A    between atoms: _12  and  _15
REMARK    8  A    between atoms: _15  and  _16
REMARK    9  A    between atoms: _21  and  _22
REMARK   10  A    between atoms: _24  and  _26
REMARK   11  A    between atoms: _26  and  _27
REMARK   12  A    between atoms: _26  and  _29
REMARK   13  A    between atoms: _29  and  _30
REMARK   14  A    between atoms: _33  and  _35
REMARK   15  A    between atoms: _35  and  _36
REMARK   16  A    between atoms: _35  and  _38
REMARK   17  A    between atoms: _38  and  _39
REMARK   18  A    between atoms: _44  and  _45
REMARK   19  A    between atoms: _47  and  _49
REMARK   20  A    between atoms: _49  and  _50
REMARK   21  A    between atoms: _49  and  _52
REMARK   22  A    between atoms: _52  and  _53
REMARK   23  A    between atoms: _59  and  _61
REMARK   24  A    between atoms: _61  and  _62
REMARK   25  A    between atoms: _61  and  _64
REMARK   26  A    between atoms: _64  and  _65
REMARK   27  A    between atoms: _71  and  _73
REMARK   28  A    between atoms: _73  and  _74
REMARK   29  A    between atoms: _73  and  _76
REMARK   30  A    between atoms: _76  and  _77
REMARK   31  A    between atoms: _77  and  _78
REMARK   32  A    between atoms: _78  and  _79
REMARK   33  A    between atoms: _88  and  _90
REMARK   34  A    between atoms: _90  and  _91
REMARK   35  A    between atoms: _90  and  _93
REMARK   36  A    between atoms: _93  and  _94
REMARK   37  A    between atoms: _94  and  _95
REMARK   38  A    between atoms: _97  and  _99
REMARK   39  A    between atoms: _99  and  _100
REMARK   40  A    between atoms: _99  and  _102
REMARK   41  A    between atoms: _102  and  _103
REMARK   42  A    between atoms: _107  and  _108
REMARK   43  A    between atoms: _113  and  _115
REMARK   44  A    between atoms: _115  and  _116
REMARK   45  A    between atoms: _115  and  _118
REMARK   46  A    between atoms: _118  and  _119
REMARK   47  A    between atoms: _124  and  _126
REMARK   48  A    between atoms: _126  and  _127
REMARK   49  A    between atoms: _126  and  _129
REMARK   50  A    between atoms: _129  and  _130
REMARK   51  A    between atoms: _133  and  _135
REMARK   52  A    between atoms: _135  and  _136
REMARK   53  A    between atoms: _139  and  _141
REMARK   54  A    between atoms: _141  and  _142
REMARK   55  A    between atoms: _141  and  _144
REMARK   56  A    between atoms: _144  and  _145
REMARK   57  A    between atoms: _148  and  _150
REMARK   58  A    between atoms: _150  and  _151
REMARK   59  A    between atoms: _150  and  _153
REMARK   60  A    between atoms: _153  and  _154
REMARK   61  A    between atoms: _157  and  _159
REMARK   62  A    between atoms: _159  and  _160
REMARK   63  A    between atoms: _159  and  _162
REMARK   64  A    between atoms: _165  and  _167
REMARK   65  A    between atoms: _167  and  _168
REMARK   66  A    between atoms: _167  and  _170
REMARK   67  A    between atoms: _170  and  _171
REMARK   68  A    between atoms: _173  and  _175
REMARK   69  A    between atoms: _175  and  _176
REMARK   70  A    between atoms: _175  and  _178
REMARK   71  A    between atoms: _178  and  _179
REMARK   72  A    between atoms: _184  and  _185
REMARK   73  A    between atoms: _187  and  _189
REMARK   74  A    between atoms: _189  and  _190
REMARK   75  A    between atoms: _189  and  _192
REMARK   76  A    between atoms: _192  and  _193
REMARK   77  A    between atoms: _195  and  _197
REMARK   78  A    between atoms: _197  and  _198
REMARK   79  A    between atoms: _197  and  _200
REMARK   80  A    between atoms: _200  and  _201
REMARK   81  A    between atoms: _204  and  _206
REMARK   82  A    between atoms: _206  and  _207
REMARK   83  A    between atoms: _206  and  _209
REMARK   84  A    between atoms: _209  and  _210
REMARK   85  A    between atoms: _210  and  _211
REMARK   86  A    between atoms: _211  and  _212
REMARK   87  A    between atoms: _212  and  _213
REMARK   88  A    between atoms: _217  and  _219
REMARK   89  A    between atoms: _219  and  _220
REMARK   90  A    between atoms: _219  and  _222
REMARK   91  A    between atoms: _225  and  _227
REMARK   92  A    between atoms: _227  and  _228
REMARK   93  A    between atoms: _231  and  _233
REMARK   94  A    between atoms: _233  and  _234
REMARK   95  A    between atoms: _233  and  _236
REMARK   96  A    between atoms: _236  and  _237
REMARK   97  A    between atoms: _240  and  _242
REMARK   98  A    between atoms: _242  and  _243
REMARK   99  A    between atoms: _242  and  _245
REMARK  100  A    between atoms: _245  and  _246
REMARK  101  A    between atoms: _246  and  _247
REMARK  102  A    between atoms: _250  and  _252
REMARK  103  A    between atoms: _252  and  _253
REMARK  104  A    between atoms: _252  and  _255
REMARK  105  A    between atoms: _258  and  _260
REMARK  106  A    between atoms: _260  and  _261
REMARK  107  A    between atoms: _260  and  _263
REMARK  108  A    between atoms: _263  and  _264
REMARK  109  A    between atoms: _267  and  _269
REMARK  110  A    between atoms: _269  and  _270
REMARK  111  A    between atoms: _269  and  _272
REMARK  112  A    between atoms: _272  and  _273
REMARK  113  A    between atoms: _273  and  _274
REMARK  114  A    between atoms: _276  and  _278
REMARK  115  A    between atoms: _278  and  _279
REMARK  116  A    between atoms: _278  and  _281
REMARK  117  A    between atoms: _281  and  _282
REMARK  118  A    between atoms: _285  and  _287
REMARK  119  A    between atoms: _287  and  _288
REMARK  120  A    between atoms: _287  and  _290
REMARK  121  A    between atoms: _290  and  _291
REMARK  122  A    between atoms: _291  and  _292
REMARK  123  A    between atoms: _292  and  _293
REMARK  124  A    between atoms: _302  and  _304
REMARK  125  A    between atoms: _304  and  _305
REMARK  126  A    between atoms: _304  and  _307
REMARK  127  A    between atoms: _307  and  _308
REMARK  128  A    between atoms: _310  and  _312
REMARK  129  A    between atoms: _312  and  _313
REMARK  130  A    between atoms: _312  and  _315
REMARK  131  A    between atoms: _315  and  _316
REMARK  132  A    between atoms: _321  and  _323
REMARK  133  A    between atoms: _323  and  _324
REMARK  134  A    between atoms: _323  and  _326
REMARK  135  A    between atoms: _326  and  _327
REMARK  136  A    between atoms: _327  and  _328
REMARK  137  A    between atoms: _331  and  _333
REMARK  138  A    between atoms: _333  and  _334
REMARK  139  A    between atoms: _333  and  _336
REMARK  140  A    between atoms: _336  and  _337
REMARK  141  A    between atoms: _339  and  _341
REMARK  142  A    between atoms: _341  and  _342
REMARK  143  A    between atoms: _341  and  _344
REMARK  144  A    between atoms: _344  and  _345
REMARK  145  A    between atoms: _351  and  _353
REMARK  146  A    between atoms: _353  and  _354
REMARK  147  A    between atoms: _353  and  _356
REMARK  148  A    between atoms: _356  and  _357
REMARK  149  A    between atoms: _359  and  _361
REMARK  150  A    between atoms: _361  and  _362
REMARK  151  A    between atoms: _361  and  _364
REMARK  152  A    between atoms: _364  and  _365
REMARK  153  A    between atoms: _375  and  _377
REMARK  154  A    between atoms: _377  and  _378
REMARK  155  A    between atoms: _377  and  _380
REMARK  156  A    between atoms: _380  and  _381
REMARK  157  A    between atoms: _384  and  _386
REMARK  158  A    between atoms: _386  and  _387
REMARK  159  A    between atoms: _386  and  _389
REMARK  160  A    between atoms: _391  and  _393
REMARK  161  A    between atoms: _393  and  _394
REMARK  162  A    between atoms: _393  and  _396
REMARK  163  A    between atoms: _396  and  _397
REMARK  164  A    between atoms: _402  and  _403
REMARK  165  A    between atoms: _405  and  _407
REMARK  166  A    between atoms: _407  and  _408
REMARK  167  A    between atoms: _407  and  _410
REMARK  168  A    between atoms: _410  and  _411
REMARK  169  A    between atoms: _411  and  _412
REMARK  170  A    between atoms: _412  and  _413
REMARK  171  A    between atoms: _413  and  _414
REMARK  172  A    between atoms: _418  and  _420
REMARK  173  A    between atoms: _420  and  _421
REMARK  174  A    between atoms: _420  and  _423
REMARK  175  A    between atoms: _423  and  _424
REMARK  176  A    between atoms: _429  and  _430
REMARK  177  A    between atoms: _432  and  _434
REMARK  178  A    between atoms: _434  and  _435
REMARK  179  A    between atoms: _434  and  _437
REMARK  180  A    between atoms: _437  and  _438
REMARK  181  A    between atoms: _438  and  _439
REMARK  182  A    between atoms: _439  and  _440
REMARK  183  A    between atoms: _449  and  _451
REMARK  184  A    between atoms: _451  and  _452
REMARK  185  A    between atoms: _451  and  _454
REMARK  186  A    between atoms: _457  and  _459
REMARK  187  A    between atoms: _459  and  _460
REMARK  188  A    between atoms: _459  and  _462
REMARK  189  A    between atoms: _462  and  _463
REMARK  190  A    between atoms: _466  and  _468
REMARK  191  A    between atoms: _468  and  _469
REMARK  192  A    between atoms: _468  and  _471
REMARK  193  A    between atoms: _474  and  _476
REMARK  194  A    between atoms: _476  and  _477
REMARK  195  A    between atoms: _476  and  _479
REMARK  196  A    between atoms: _479  and  _480
REMARK  197  A    between atoms: _483  and  _485
REMARK  198  A    between atoms: _485  and  _486
REMARK  199  A    between atoms: _489  and  _491
REMARK  200  A    between atoms: _491  and  _492
REMARK  201  A    between atoms: _494  and  _496
REMARK  202  A    between atoms: _496  and  _497
REMARK  203  A    between atoms: _496  and  _499
REMARK  204  A    between atoms: _499  and  _500
REMARK  205  A    between atoms: _505  and  _507
REMARK  206  A    between atoms: _507  and  _508
REMARK  207  A    between atoms: _507  and  _510
REMARK  208  A    between atoms: _510  and  _511
REMARK  209  A    between atoms: _513  and  _515
REMARK  210  A    between atoms: _515  and  _516
REMARK  211  A    between atoms: _515  and  _518
REMARK  212  A    between atoms: _518  and  _519
REMARK  213  A    between atoms: _522  and  _524
REMARK  214  A    between atoms: _524  and  _525
REMARK  215  A    between atoms: _524  and  _527
REMARK  216  A    between atoms: _527  and  _528
REMARK  217  A    between atoms: _531  and  _533
REMARK  218  A    between atoms: _533  and  _534
REMARK  219  A    between atoms: _533  and  _536
REMARK  220  A    between atoms: _536  and  _537
REMARK  221  A    between atoms: _540  and  _542
REMARK  222  A    between atoms: _542  and  _543
REMARK  223  A    between atoms: _542  and  _545
REMARK  224  A    between atoms: _545  and  _546
REMARK  225  A    between atoms: _549  and  _551
REMARK  226  A    between atoms: _551  and  _552
REMARK  227  A    between atoms: _551  and  _554
REMARK  228  A    between atoms: _554  and  _555
REMARK  229  A    between atoms: _555  and  _556
REMARK  230  A    between atoms: _561  and  _563
REMARK  231  A    between atoms: _563  and  _564
REMARK  232  A    between atoms: _563  and  _566
REMARK  233  A    between atoms: _566  and  _567
REMARK  234  A    between atoms: _570  and  _572
REMARK  235  A    between atoms: _572  and  _573
REMARK  236  A    between atoms: _572  and  _575
REMARK  237  A    between atoms: _575  and  _576
REMARK  238  A    between atoms: _581  and  _583
REMARK  239  A    between atoms: _583  and  _584
REMARK  240  A    between atoms: _583  and  _586
REMARK  241  A    between atoms: _586  and  _587
REMARK  242  A    between atoms: _589  and  _591
REMARK  243  A    between atoms: _591  and  _592
REMARK  244  A    between atoms: _591  and  _594
REMARK  245  A    between atoms: _594  and  _595
REMARK  246  A    between atoms: _595  and  _596
REMARK  247  A    between atoms: _601  and  _603
REMARK  248  A    between atoms: _603  and  _604
REMARK  249  A    between atoms: _603  and  _606
REMARK  250  A    between atoms: _606  and  _607
REMARK  251  A    between atoms: _612  and  _613
REMARK  252  A    between atoms: _615  and  _617
REMARK  253  A    between atoms: _617  and  _618
REMARK  254  A    between atoms: _617  and  _620
REMARK  255  A    between atoms: _620  and  _621
REMARK  256  A    between atoms: _624  and  _626
REMARK  257  A    between atoms: _626  and  _627
REMARK  258  A    between atoms: _626  and  _629
REMARK  259  A    between atoms: _629  and  _630
REMARK  260  A    between atoms: _630  and  _631
REMARK  261  A    between atoms: _631  and  _632
REMARK  262  A    between atoms: _632  and  _633
REMARK  263  A    between atoms: _637  and  _639
REMARK  264  A    between atoms: _639  and  _640
REMARK  265  A    between atoms: _639  and  _642
REMARK  266  A    between atoms: _642  and  _643
REMARK  267  A    between atoms: _646  and  _648
REMARK  268  A    between atoms: _648  and  _649
REMARK  269  A    between atoms: _648  and  _651
REMARK  270  A    between atoms: _651  and  _652
REMARK  271  A    between atoms: _655  and  _657
REMARK  272  A    between atoms: _657  and  _658
REMARK  273  A    between atoms: _657  and  _660
REMARK  274  A    between atoms: _663  and  _665
REMARK  275  A    between atoms: _665  and  _666
REMARK  276  A    between atoms: _665  and  _668
REMARK  277  A    between atoms: _668  and  _669
REMARK                            x       y       z     vdW  Elec       q    Type
REMARK                         _______ _______ _______ _____ _____    ______ ____
ROOT
ATOM      1  CA  ARG A   8      16.881  18.455  40.603  0.00  0.00    +0.149 C 
ENDROOT
BRANCH   1   4
ATOM      2  C   LEU A   7      17.253  20.570  41.763  0.00  0.00    +0.241 C 
ATOM      3  O   LEU A   7      18.434  20.598  41.427  0.00  0.00    -0.273 OA
ATOM      4  N   ARG A   8      16.426  19.589  41.402  0.00  0.00    -0.297 N 
ATOM      5  H   ARG A   8      15.430  19.633  41.697  0.00  0.00    +0.150 HD
BRANCH   2   6
ATOM      6  CA  LEU A   7      16.665  21.679  42.640  0.00  0.00    +0.149 C 
BRANCH   6   8
ATOM      7  C   MET A   6      15.548  22.957  40.902  0.00  0.00    +0.241 C 
ATOM      8  N   LEU A   7      15.476  22.296  42.054  0.00  0.00    -0.297 N 
ATOM      9  H   LEU A   7      14.562  22.217  42.544  0.00  0.00    +0.150 HD
ATOM     10  O   MET A   6      16.596  23.095  40.282  0.00  0.00    -0.273 OA
BRANCH   7  11
ATOM     11  CA  MET A   6      14.245  23.531  40.360  0.00  0.00    +0.149 C 
BRANCH  11  13
ATOM     12  C   ILE A   5      13.218  21.374  39.964  0.00  0.00    +0.241 C 
ATOM     13  N   MET A   6      13.186  22.550  40.584  0.00  0.00    -0.297 N 
ATOM     14  H   MET A   6      12.403  22.772  41.232  0.00  0.00    +0.150 HD
ATOM     15  O   ILE A   5      14.113  21.061  39.179  0.00  0.00    -0.273 OA
BRANCH  12  16
ATOM     16  CA  ILE A   5      12.085  20.401  40.274  0.00  0.00    +0.149 C 
BRANCH  16  19
ATOM     17  C   VAL A   4      12.702  19.998  42.587  0.00  0.00    +0.241 C 
ATOM     18  O   VAL A   4      13.802  19.544  42.267  0.00  0.00    -0.273 OA
ATOM     19  N   ILE A   5      11.807  20.428  41.701  0.00  0.00    -0.297 N 
ATOM     20  H   ILE A   5      10.891  20.790  42.036  0.00  0.00    +0.150 HD
BRANCH  17  21
ATOM     21  CA  VAL A   4      12.304  20.099  44.051  0.00  0.00    +0.149 C 
BRANCH  21  23
ATOM     22  C   GLU A   3      11.957  22.485  44.127  0.00  0.00    +0.241 C 
ATOM     23  N   VAL A   4      11.457  21.260  44.251  0.00  0.00    -0.297 N 
ATOM     24  H   VAL A   4      10.453  21.133  44.493  0.00  0.00    +0.150 HD
ATOM     25  O   GLU A   3      13.137  22.691  43.849  0.00  0.00    -0.273 OA
BRANCH  22  26
ATOM     26  CA  GLU A   3      10.992  23.647  44.360  0.00  0.00    +0.149 C 
BRANCH  26  28
ATOM     27  C   ILE A   2       9.566  23.384  42.404  0.00  0.00    +0.241 C 
ATOM     28  N   GLU A   3       9.700  23.409  43.725  0.00  0.00    -0.297 N 
ATOM     29  H   GLU A   3       8.863  23.255  44.322  0.00  0.00    +0.150 HD
ATOM     30  O   ILE A   2      10.511  23.572  41.635  0.00  0.00    -0.273 OA
BRANCH  27  31
ATOM     31  CA  ILE A   2       8.156  23.112  41.863  0.00  0.00    +0.148 C 
BRANCH  31  33
ATOM     32  C   ALA A   1       7.796  20.944  42.891  0.00  0.00    +0.238 C 
ATOM     33  N   ILE A   2       7.387  22.196  42.708  0.00  0.00    -0.297 N 
ATOM     34  H   ILE A   2       6.515  22.527  43.168  0.00  0.00    +0.150 HD
ATOM     35  O   ALA A   1       8.831  20.510  42.384  0.00  0.00    -0.274 OA
BRANCH  32  36
ATOM     36  CA  ALA A   1       6.930  20.033  43.764  0.00  0.00    +0.145 C 
ATOM     37  CB  ALA A   1       5.590  19.774  43.065  0.00  0.00    +0.028 C 
BRANCH  36  38
ATOM     38  N   ALA A   1       6.702  20.502  45.132  0.00  0.00    -0.238 NA
ATOM     39  H   ALA A   1       5.755  20.406  45.551  0.00  0.00    +0.142 HD
ENDBRANCH  36  38
ENDBRANCH  32  36
ENDBRANCH  31  33
BRANCH  31  40
ATOM     40  CB  ILE A   2       7.425  24.463  41.675  0.00  0.00    +0.027 C 
ATOM     41  CG2 ILE A   2       7.435  25.262  42.981  0.00  0.00    +0.002 C 
BRANCH  40  42
ATOM     42  CG1 ILE A   2       8.118  25.277  40.576  0.00  0.00    +0.002 C 
ATOM     43  CD1 ILE A   2       8.077  24.628  39.211  0.00  0.00    +0.000 C 
ENDBRANCH  40  42
ENDBRANCH  31  40
ENDBRANCH  27  31
ENDBRANCH  26  28
BRANCH  26  44
ATOM     44  CB  GLU A   3      10.809  23.851  45.863  0.00  0.00    +0.041 C 
BRANCH  44  45
ATOM     45  CG  GLU A   3      10.180  25.176  46.242  0.00  0.00    +0.116 C 
BRANCH  45  46
ATOM     46  CD  GLU A   3       9.985  25.313  47.738  0.00  0.00    +0.365 C 
ATOM     47  OE2 GLU A   3      10.780  24.718  48.497  0.00  0.00    -0.246 OA
ATOM     48  OE1 GLU A   3       9.046  26.020  48.152  0.00  0.00    -0.246 OA
ENDBRANCH  45  46
ENDBRANCH  44  45
ENDBRANCH  26  44
ENDBRANCH  22  26
ENDBRANCH  21  23
BRANCH  21  49
ATOM     49  CB  VAL A   4      11.595  18.805  44.497  0.00  0.00    +0.027 C 
ATOM     50  CG2 VAL A   4      11.295  18.879  45.991  0.00  0.00    +0.002 C 
ATOM     51  CG1 VAL A   4      12.485  17.600  44.217  0.00  0.00    +0.002 C 
ENDBRANCH  21  49
ENDBRANCH  17  21
ENDBRANCH  16  19
BRANCH  16  52
ATOM     52  CB  ILE A   5      10.826  20.762  39.457  0.00  0.00    +0.027 C 
ATOM     53  CG2 ILE A   5      11.207  21.153  38.028  0.00  0.00    +0.002 C 
BRANCH  52  54
ATOM     54  CG1 ILE A   5       9.871  19.558  39.443  0.00  0.00    +0.002 C 
ATOM     55  CD1 ILE A   5       8.488  19.875  38.925  0.00  0.00    +0.000 C 
ENDBRANCH  52  54
ENDBRANCH  16  52
ENDBRANCH  12  16
ENDBRANCH  11  13
BRANCH  11  56
ATOM     56  CB  MET A   6      13.915  24.864  41.047  0.00  0.00    +0.041 C 
BRANCH  56  57
ATOM     57  CG  MET A   6      12.741  25.584  40.411  0.00  0.00    +0.060 C 
BRANCH  57  58
ATOM     58  SD  MET A   6      12.258  27.085  41.281  0.00  0.00    -0.139 S 
ATOM     59  CE  MET A   6      11.071  27.755  40.111  0.00  0.00    +0.069 C 
ENDBRANCH  57  58
ENDBRANCH  56  57
ENDBRANCH  11  56
ENDBRANCH   7  11
ENDBRANCH   6   8
BRANCH   6  60
ATOM     60  CB  LEU A   7      16.347  21.082  44.014  0.00  0.00    +0.029 C 
BRANCH  60  61
ATOM     61  CG  LEU A   7      16.426  21.970  45.256  0.00  0.00    +0.002 C 
ATOM     62  CD2 LEU A   7      16.087  21.135  46.488  0.00  0.00    +0.000 C 
ATOM     63  CD1 LEU A   7      17.827  22.563  45.386  0.00  0.00    +0.000 C 
ENDBRANCH  60  61
ENDBRANCH   6  60
ENDBRANCH   2   6
ENDBRANCH   1   4
BRANCH   1  64
ATOM     64  C   ARG A   8      17.331  18.842  39.196  0.00  0.00    +0.241 C 
ATOM     65  N   SER A   9      16.817  19.955  38.683  0.00  0.00    -0.295 N 
ATOM     66  H   SER A   9      16.142  20.511  39.246  0.00  0.00    +0.150 HD
ATOM     67  O   ARG A   8      18.140  18.144  38.589  0.00  0.00    -0.273 OA
BRANCH  65  68
ATOM     68  CA  SER A   9      17.180  20.414  37.346  0.00  0.00    +0.178 C 
BRANCH  68  69
ATOM     69  C   SER A   9      18.624  20.915  37.296  0.00  0.00    +0.243 C 
ATOM     70  N   ASN A  10      19.200  21.179  38.461  0.00  0.00    -0.297 N 
ATOM     71  H   ASN A  10      18.663  21.039  39.341  0.00  0.00    +0.150 HD
ATOM     72  O   SER A   9      19.205  21.061  36.224  0.00  0.00    -0.273 OA
BRANCH  70  73
ATOM     73  CA  ASN A  10      20.574  21.662  38.528  0.00  0.00    +0.158 C 
BRANCH  73  74
ATOM     74  C   ASN A  10      21.533  20.636  37.908  0.00  0.00    +0.241 C 
ATOM     75  N   GLU A  11      21.118  19.374  37.902  0.00  0.00    -0.297 N 
ATOM     76  H   GLU A  11      20.186  19.139  38.299  0.00  0.00    +0.150 HD
ATOM     77  O   ASN A  10      22.621  20.981  37.435  0.00  0.00    -0.273 OA
BRANCH  75  78
ATOM     78  CA  GLU A  11      21.951  18.315  37.347  0.00  0.00    +0.149 C 
BRANCH  78  79
ATOM     79  C   GLU A  11      22.141  18.477  35.834  0.00  0.00    +0.241 C 
ATOM     80  O   GLU A  11      23.168  18.072  35.289  0.00  0.00    -0.273 OA
ATOM     81  N   SER A  12      21.169  19.076  35.151  0.00  0.00    -0.295 N 
ATOM     82  H   SER A  12      20.317  19.409  35.646  0.00  0.00    +0.150 HD
BRANCH  81  83
ATOM     83  CA  SER A  12      21.295  19.268  33.706  0.00  0.00    +0.178 C 
BRANCH  83  84
ATOM     84  C   SER A  12      21.700  20.695  33.348  0.00  0.00    +0.243 C 
ATOM     85  N   PHE A  13      21.762  21.567  34.347  0.00  0.00    -0.298 N 
ATOM     86  H   PHE A  13      21.531  21.258  35.313  0.00  0.00    +0.150 HD
ATOM     87  O   SER A  12      21.943  21.007  32.181  0.00  0.00    -0.273 OA
BRANCH  85  88
ATOM     88  CA  PHE A  13      22.150  22.953  34.107  0.00  0.00    +0.141 C 
BRANCH  88  89
ATOM     89  C   PHE A  13      23.649  22.982  33.868  0.00  0.00    +0.227 C 
ATOM     90  O   PHE A  13      24.397  22.250  34.513  0.00  0.00    -0.286 OA
ENDBRANCH  88  89
BRANCH  88  91
ATOM     91  CB  PHE A  13      21.822  23.830  35.318  0.00  0.00    +0.054 C 
BRANCH  91  92
ATOM     92  CG  PHE A  13      22.098  25.298  35.101  0.00  0.00    -0.020 A 
ATOM     93  CD2 PHE A  13      23.226  25.897  35.654  0.00  0.00    -0.004 A 
ATOM     94  CE2 PHE A  13      23.495  27.255  35.446  0.00  0.00    -0.000 A 
ATOM     95  CZ  PHE A  13      22.628  28.024  34.676  0.00  0.00    -0.000 A 
ATOM     96  CE1 PHE A  13      21.494  27.435  34.117  0.00  0.00    -0.000 A 
ATOM     97  CD1 PHE A  13      21.236  26.076  34.333  0.00  0.00    -0.004 A 
ENDBRANCH  91  92
ENDBRANCH  88  91
ENDBRANCH  85  88
ENDBRANCH  83  84
BRANCH  83  98
ATOM     98  CB  SER A  12      19.984  18.933  32.999  0.00  0.00    +0.166 C 
BRANCH  98  99
ATOM     99  OG  SER A  12      18.986  19.868  33.334  0.00  0.00    -0.380 OA
ATOM    100  H   SER A  12      18.836  19.852  34.312  0.00  0.00    +0.211 HD
ENDBRANCH  98  99
ENDBRANCH  83  98
ENDBRANCH  81  83
ENDBRANCH  78  79
BRANCH  78 101
ATOM    101  CB  GLU A  11      21.346  16.941  37.691  0.00  0.00    +0.041 C 
BRANCH 101 102
ATOM    102  CG  GLU A  11      22.190  15.742  37.280  0.00  0.00    +0.116 C 
BRANCH 102 103
ATOM    103  CD  GLU A  11      21.917  14.484  38.118  0.00  0.00    +0.365 C 
ATOM    104  OE2 GLU A  11      21.225  14.563  39.167  0.00  0.00    -0.246 OA
ATOM    105  OE1 GLU A  11      22.410  13.406  37.725  0.00  0.00    -0.246 OA
ENDBRANCH 102 103
ENDBRANCH 101 102
ENDBRANCH  78 101
ENDBRANCH  75  78
ENDBRANCH  73  74
BRANCH  73 106
ATOM    106  CB  ASN A  10      20.961  21.927  39.983  0.00  0.00    +0.114 C 
BRANCH 106 107
ATOM    107  CG  ASN A  10      22.220  22.765  40.106  0.00  0.00    +0.222 C 
ATOM    108  OD1 ASN A  10      23.228  22.313  40.652  0.00  0.00    -0.275 OA
ATOM    109  ND2 ASN A  10      22.169  23.993  39.592  0.00  0.00    -0.329 N 
ATOM    110 HD21 ASN A  10      23.003  24.613  39.642  0.00  0.00    +0.145 HD
ATOM    111 HD22 ASN A  10      21.296  24.332  39.140  0.00  0.00    +0.145 HD
ENDBRANCH 106 107
ENDBRANCH  73 106
ENDBRANCH  70  73
ENDBRANCH  68  69
BRANCH  68 112
ATOM    112  CB  SER A   9      16.241  21.537  36.896  0.00  0.00    +0.166 C 
BRANCH 112 113
ATOM    113  OG  SER A   9      16.620  22.793  37.442  0.00  0.00    -0.380 OA
ATOM    114  H   SER A   9      16.594  22.743  38.430  0.00  0.00    +0.211 HD
ENDBRANCH 112 113
ENDBRANCH  68 112
ENDBRANCH  65  68
ENDBRANCH   1  64
BRANCH   1 115
ATOM    115  CB  ARG A   8      15.777  17.378  40.535  0.00  0.00    +0.033 C 
BRANCH 115 116
ATOM    116  CG  ARG A   8      14.658  17.645  39.521  0.00  0.00    +0.045 C 
BRANCH 116 117
ATOM    117  CD  ARG A   8      13.387  16.859  39.862  0.00  0.00    +0.174 C 
BRANCH 117 118
ATOM    118  NE  ARG A   8      13.609  15.422  40.037  0.00  0.00    -0.265 N 
ATOM    119  HE  ARG A   8      13.761  15.071  41.004  0.00  0.00    +0.259 HD
ATOM    120  CZ  ARG A   8      13.630  14.534  39.048  0.00  0.00    +0.342 C 
ATOM    121  NH2 ARG A   8      13.821  13.246  39.318  0.00  0.00    -0.292 N 
ATOM    122 HH21 ARG A   8      13.954  12.935  40.301  0.00  0.00    +0.255 HD
ATOM    123 HH22 ARG A   8      13.838  12.550  38.546  0.00  0.00    +0.255 HD
ATOM    124  NH1 ARG A   8      13.442  14.928  37.792  0.00  0.00    -0.292 N 
ATOM    125 HH11 ARG A   8      13.278  15.933  37.581  0.00  0.00    +0.255 HD
ATOM    126 HH12 ARG A   8      13.459  14.231  37.020  0.00  0.00    +0.255 HD
ENDBRANCH 117 118
ENDBRANCH 116 117
ENDBRANCH 115 116
ENDBRANCH   1 115
TORSDOF 54
REMARK  Name = ../refined-set-2016/1s19/1s19_pocket.pdb
REMARK  277 active torsions:
REMARK  status: ('A' for Active; 'I' for Inactive)
REMARK    1  A    between atoms: _1  and  _3
REMARK    2  A    between atoms: _3  and  _4
REMARK    3  A    between atoms: _3  and  _6
REMARK    4  A    between atoms: _6  and  _7
REMARK    5  A    between atoms: _10  and  _12
REMARK    6  A    between atoms: _12  and  _13
REMARK    7  A    between atoms: _12  and  _15
REMARK    8  A    between atoms: _15  and  _16
REMARK    9  A    between atoms: _21  and  _22
REMARK   10  A    between atoms: _24  and  _26
REMARK   11  A    between atoms: _26  and  _27
REMARK   12  A    between atoms: _26  and  _29
REMARK   13  A    between atoms: _29  and  _30
REMARK   14  A    between atoms: _33  and  _35
REMARK   15  A    between atoms: _35  and  _36
REMARK   16  A    between atoms: _35  and  _38
REMARK   17  A    between atoms: _38  and  _39
REMARK   18  A    between atoms: _44  and  _45
REMARK   19  A    between atoms: _47  and  _49
REMARK   20  A    between atoms: _49  and  _50
REMARK   21  A    between atoms: _49  and  _52
REMARK   22  A    between atoms: _52  and  _53
REMARK   23  A    between atoms: _59  and  _61
REMARK   24  A    between atoms: _61  and  _62
REMARK   25  A    between atoms: _61  and  _64
REMARK   26  A    between atoms: _64  and  _65
REMARK   27  A    between atoms: _71  and  _73
REMARK   28  A    between atoms: _73  and  _74
REMARK   29  A    between atoms: _73  and  _76
REMARK   30  A    between atoms: _76  and  _77
REMARK   31  A    between atoms: _77  and  _78
REMARK   32  A    between atoms: _78  and  _79
REMARK   33  A    between atoms: _88  and  _90
REMARK   34  A    between atoms: _90  and  _91
REMARK   35  A    between atoms: _90  and  _93
REMARK   36  A    between atoms: _93  and  _94
REMARK   37  A    between atoms: _94  and  _95
REMARK   38  A    between atoms: _97  and  _99
REMARK   39  A    between atoms: _99  and  _100
REMARK   40  A    between atoms: _99  and  _102
REMARK   41  A    between atoms: _102  and  _103
REMARK   42  A    between atoms: _107  and  _108
REMARK   43  A    between atoms: _113  and  _115
REMARK   44  A    between atoms: _115  and  _116
REMARK   45  A    between atoms: _115  and  _118
REMARK   46  A    between atoms: _118  and  _119
REMARK   47  A    between atoms: _124  and  _126
REMARK   48  A    between atoms: _126  and  _127
REMARK   49  A    between atoms: _126  and  _129
REMARK   50  A    between atoms: _129  and  _130
REMARK   51  A    between atoms: _133  and  _135
REMARK   52  A    between atoms: _135  and  _136
REMARK   53  A    between atoms: _139  and  _141
REMARK   54  A    between atoms: _141  and  _142
REMARK   55  A    between atoms: _141  and  _144
REMARK   56  A    between atoms: _144  and  _145
REMARK   57  A    between atoms: _148  and  _150
REMARK   58  A    between atoms: _150  and  _151
REMARK   59  A    between atoms: _150  and  _153
REMARK   60  A    between atoms: _153  and  _154
REMARK   61  A    between atoms: _157  and  _159
REMARK   62  A    between atoms: _159  and  _160
REMARK   63  A    between atoms: _159  and  _162
REMARK   64  A    between atoms: _165  and  _167
REMARK   65  A    between atoms: _167  and  _168
REMARK   66  A    between atoms: _167  and  _170
REMARK   67  A    between atoms: _170  and  _171
REMARK   68  A    between atoms: _173  and  _175
REMARK   69  A    between atoms: _175  and  _176
REMARK   70  A    between atoms: _175  and  _178
REMARK   71  A    between atoms: _178  and  _179
REMARK   72  A    between atoms: _184  and  _185
REMARK   73  A    between atoms: _187  and  _189
REMARK   74  A    between atoms: _189  and  _190
REMARK   75  A    between atoms: _189  and  _192
REMARK   76  A    between atoms: _192  and  _193
REMARK   77  A    between atoms: _195  and  _197
REMARK   78  A    between atoms: _197  and  _198
REMARK   79  A    between atoms: _197  and  _200
REMARK   80  A    between atoms: _200  and  _201
REMARK   81  A    between atoms: _204  and  _206
REMARK   82  A    between atoms: _206  and  _207
REMARK   83  A    between atoms: _206  and  _209
REMARK   84  A    between atoms: _209  and  _210
REMARK   85  A    between atoms: _210  and  _211
REMARK   86  A    between atoms: _211  and  _212
REMARK   87  A    between atoms: _212  and  _213
REMARK   88  A    between atoms: _217  and  _219
REMARK   89  A    between atoms: _219  and  _220
REMARK   90  A    between atoms: _219  and  _222
REMARK   91  A    between atoms: _225  and  _227
REMARK   92  A    between atoms: _227  and  _228
REMARK   93  A    between atoms: _231  and  _233
REMARK   94  A    between atoms: _233  and  _234
REMARK   95  A    between atoms: _233  and  _236
REMARK   96  A    between atoms: _236  and  _237
REMARK   97  A    between atoms: _240  and  _242
REMARK   98  A    between atoms: _242  and  _243
REMARK   99  A    between atoms: _242  and  _245
REMARK  100  A    between atoms: _245  and  _246
REMARK  101  A    between atoms: _246  and  _247
REMARK  102  A    between atoms: _250  and  _252
REMARK  103  A    between atoms: _252  and  _253
REMARK  104  A    between atoms: _252  and  _255
REMARK  105  A    between atoms: _258  and  _260
REMARK  106  A    between atoms: _260  and  _261
REMARK  107  A    between atoms: _260  and  _263
REMARK  108  A    between atoms: _263  and  _264
REMARK  109  A    between atoms: _267  and  _269
REMARK  110  A    between atoms: _269  and  _270
REMARK  111  A    between atoms: _269  and  _272
REMARK  112  A    between atoms: _272  and  _273
REMARK  113  A    between atoms: _273  and  _274
REMARK  114  A    between atoms: _276  and  _278
REMARK  115  A    between atoms: _278  and  _279
REMARK  116  A    between atoms: _278  and  _281
REMARK  117  A    between atoms: _281  and  _282
REMARK  118  A    between atoms: _285  and  _287
REMARK  119  A    between atoms: _287  and  _288
REMARK  120  A    between atoms: _287  and  _290
REMARK  121  A    between atoms: _290  and  _291
REMARK  122  A    between atoms: _291  and  _292
REMARK  123  A    between atoms: _292  and  _293
REMARK  124  A    between atoms: _302  and  _304
REMARK  125  A    between atoms: _304  and  _305
REMARK  126  A    between atoms: _304  and  _307
REMARK  127  A    between atoms: _307  and  _308
REMARK  128  A    between atoms: _310  and  _312
REMARK  129  A    between atoms: _312  and  _313
REMARK  130  A    between atoms: _312  and  _315
REMARK  131  A    between atoms: _315  and  _316
REMARK  132  A    between atoms: _321  and  _323
REMARK  133  A    between atoms: _323  and  _324
REMARK  134  A    between atoms: _323  and  _326
REMARK  135  A    between atoms: _326  and  _327
REMARK  136  A    between atoms: _327  and  _328
REMARK  137  A    between atoms: _331  and  _333
REMARK  138  A    between atoms: _333  and  _334
REMARK  139  A    between atoms: _333  and  _336
REMARK  140  A    between atoms: _336  and  _337
REMARK  141  A    between atoms: _339  and  _341
REMARK  142  A    between atoms: _341  and  _342
REMARK  143  A    between atoms: _341  and  _344
REMARK  144  A    between atoms: _344  and  _345
REMARK  145  A    between atoms: _351  and  _353
REMARK  146  A    between atoms: _353  and  _354
REMARK  147  A    between atoms: _353  and  _356
REMARK  148  A    between atoms: _356  and  _357
REMARK  149  A    between atoms: _359  and  _361
REMARK  150  A    between atoms: _361  and  _362
REMARK  151  A    between atoms: _361  and  _364
REMARK  152  A    between atoms: _364  and  _365
REMARK  153  A    between atoms: _375  and  _377
REMARK  154  A    between atoms: _377  and  _378
REMARK  155  A    between atoms: _377  and  _380
REMARK  156  A    between atoms: _380  and  _381
REMARK  157  A    between atoms: _384  and  _386
REMARK  158  A    between atoms: _386  and  _387
REMARK  159  A    between atoms: _386  and  _389
REMARK  160  A    between atoms: _391  and  _393
REMARK  161  A    between atoms: _393  and  _394
REMARK  162  A    between atoms: _393  and  _396
REMARK  163  A    between atoms: _396  and  _397
REMARK  164  A    between atoms: _402  and  _403
REMARK  165  A    between atoms: _405  and  _407
REMARK  166  A    between atoms: _407  and  _408
REMARK  167  A    between atoms: _407  and  _410
REMARK  168  A    between atoms: _410  and  _411
REMARK  169  A    between atoms: _411  and  _412
REMARK  170  A    between atoms: _412  and  _413
REMARK  171  A    between atoms: _413  and  _414
REMARK  172  A    between atoms: _418  and  _420
REMARK  173  A    between atoms: _420  and  _421
REMARK  174  A    between atoms: _420  and  _423
REMARK  175  A    between atoms: _423  and  _424
REMARK  176  A    between atoms: _429  and  _430
REMARK  177  A    between atoms: _432  and  _434
REMARK  178  A    between atoms: _434  and  _435
REMARK  179  A    between atoms: _434  and  _437
REMARK  180  A    between atoms: _437  and  _438
REMARK  181  A    between atoms: _438  and  _439
REMARK  182  A    between atoms: _439  and  _440
REMARK  183  A    between atoms: _449  and  _451
REMARK  184  A    between atoms: _451  and  _452
REMARK  185  A    between atoms: _451  and  _454
REMARK  186  A    between atoms: _457  and  _459
REMARK  187  A    between atoms: _459  and  _460
REMARK  188  A    between atoms: _459  and  _462
REMARK  189  A    between atoms: _462  and  _463
REMARK  190  A    between atoms: _466  and  _468
REMARK  191  A    between atoms: _468  and  _469
REMARK  192  A    between atoms: _468  and  _471
REMARK  193  A    between atoms: _474  and  _476
REMARK  194  A    between atoms: _476  and  _477
REMARK  195  A    between atoms: _476  and  _479
REMARK  196  A    between atoms: _479  and  _480
REMARK  197  A    between atoms: _483  and  _485
REMARK  198  A    between atoms: _485  and  _486
REMARK  199  A    between atoms: _489  and  _491
REMARK  200  A    between atoms: _491  and  _492
REMARK  201  A    between atoms: _494  and  _496
REMARK  202  A    between atoms: _496  and  _497
REMARK  203  A    between atoms: _496  and  _499
REMARK  204  A    between atoms: _499  and  _500
REMARK  205  A    between atoms: _505  and  _507
REMARK  206  A    between atoms: _507  and  _508
REMARK  207  A    between atoms: _507  and  _510
REMARK  208  A    between atoms: _510  and  _511
REMARK  209  A    between atoms: _513  and  _515
REMARK  210  A    between atoms: _515  and  _516
REMARK  211  A    between atoms: _515  and  _518
REMARK  212  A    between atoms: _518  and  _519
REMARK  213  A    between atoms: _522  and  _524
REMARK  214  A    between atoms: _524  and  _525
REMARK  215  A    between atoms: _524  and  _527
REMARK  216  A    between atoms: _527  and  _528
REMARK  217  A    between atoms: _531  and  _533
REMARK  218  A    between atoms: _533  and  _534
REMARK  219  A    between atoms: _533  and  _536
REMARK  220  A    between atoms: _536  and  _537
REMARK  221  A    between atoms: _540  and  _542
REMARK  222  A    between atoms: _542  and  _543
REMARK  223  A    between atoms: _542  and  _545
REMARK  224  A    between atoms: _545  and  _546
REMARK  225  A    between atoms: _549  and  _551
REMARK  226  A    between atoms: _551  and  _552
REMARK  227  A    between atoms: _551  and  _554
REMARK  228  A    between atoms: _554  and  _555
REMARK  229  A    between atoms: _555  and  _556
REMARK  230  A    between atoms: _561  and  _563
REMARK  231  A    between atoms: _563  and  _564
REMARK  232  A    between atoms: _563  and  _566
REMARK  233  A    between atoms: _566  and  _567
REMARK  234  A    between atoms: _570  and  _572
REMARK  235  A    between atoms: _572  and  _573
REMARK  236  A    between atoms: _572  and  _575
REMARK  237  A    between atoms: _575  and  _576
REMARK  238  A    between atoms: _581  and  _583
REMARK  239  A    between atoms: _583  and  _584
REMARK  240  A    between atoms: _583  and  _586
REMARK  241  A    between atoms: _586  and  _587
REMARK  242  A    between atoms: _589  and  _591
REMARK  243  A    between atoms: _591  and  _592
REMARK  244  A    between atoms: _591  and  _594
REMARK  245  A    between atoms: _594  and  _595
REMARK  246  A    between atoms: _595  and  _596
REMARK  247  A    between atoms: _601  and  _603
REMARK  248  A    between atoms: _603  and  _604
REMARK  249  A    between atoms: _603  and  _606
REMARK  250  A    between atoms: _606  and  _607
REMARK  251  A    between atoms: _612  and  _613
REMARK  252  A    between atoms: _615  and  _617
REMARK  253  A    between atoms: _617  and  _618
REMARK  254  A    between atoms: _617  and  _620
REMARK  255  A    between atoms: _620  and  _621
REMARK  256  A    between atoms: _624  and  _626
REMARK  257  A    between atoms: _626  and  _627
REMARK  258  A    between atoms: _626  and  _629
REMARK  259  A    between atoms: _629  and  _630
REMARK  260  A    between atoms: _630  and  _631
REMARK  261  A    between atoms: _631  and  _632
REMARK  262  A    between atoms: _632  and  _633
REMARK  263  A    between atoms: _637  and  _639
REMARK  264  A    between atoms: _639  and  _640
REMARK  265  A    between atoms: _639  and  _642
REMARK  266  A    between atoms: _642  and  _643
REMARK  267  A    between atoms: _646  and  _648
REMARK  268  A    between atoms: _648  and  _649
REMARK  269  A    between atoms: _648  and  _651
REMARK  270  A    between atoms: _651  and  _652
REMARK  271  A    between atoms: _655  and  _657
REMARK  272  A    between atoms: _657  and  _658
REMARK  273  A    between atoms: _657  and  _660
REMARK  274  A    between atoms: _663  and  _665
REMARK  275  A    between atoms: _665  and  _666
REMARK  276  A    between atoms: _665  and  _668
REMARK  277  A    between atoms: _668  and  _669
REMARK                            x       y       z     vdW  Elec       q    Type
REMARK                         _______ _______ _______ _____ _____    ______ ____
ROOT
ATOM      1  CA  TRP A   2      19.680  23.253  30.922  0.00  0.00    +0.153 C 
ENDROOT
BRANCH   1   4
ATOM      2  C   SER A   1      21.113  25.185  30.637  0.00  0.00    +0.241 C 
ATOM      3  O   SER A   1      22.015  24.701  31.325  0.00  0.00    -0.274 OA
ATOM      4  N   TRP A   2      19.954  24.582  30.424  0.00  0.00    -0.297 N 
ATOM      5  H   TRP A   2      19.219  25.079  29.882  0.00  0.00    +0.150 HD
BRANCH   2   6
ATOM      6  CA  SER A   1      21.260  26.544  29.980  0.00  0.00    +0.174 C 
BRANCH   6   7
ATOM      7  N   SER A   1      22.436  27.224  30.491  0.00  0.00    -0.236 NA
ATOM      8  H   SER A   1      23.301  26.680  30.683  0.00  0.00    +0.142 HD
ENDBRANCH   6   7
BRANCH   6   9
ATOM      9  CB  SER A   1      21.391  26.335  28.474  0.00  0.00    +0.163 C 
BRANCH   9  10
ATOM     10  OG  SER A   1      22.406  25.378  28.204  0.00  0.00    -0.380 OA
ATOM     11  H   SER A   1      23.269  25.703  28.565  0.00  0.00    +0.211 HD
ENDBRANCH   9  10
ENDBRANCH   6   9
ENDBRANCH   2   6
ENDBRANCH   1   4
BRANCH   1  12
ATOM     12  C   TRP A   2      19.819  22.428  29.652  0.00  0.00    +0.241 C 
ATOM     13  N   THR A   3      20.863  21.612  29.584  0.00  0.00    -0.295 N 
ATOM     14  H   THR A   3      21.522  21.551  30.387  0.00  0.00    +0.150 HD
ATOM     15  O   TRP A   2      19.008  22.553  28.732  0.00  0.00    -0.273 OA
BRANCH  13  16
ATOM     16  CA  THR A   3      21.097  20.799  28.396  0.00  0.00    +0.176 C 
BRANCH  16  17
ATOM     17  C   THR A   3      20.747  19.344  28.661  0.00  0.00    +0.243 C 
ATOM     18  O   THR A   3      21.390  18.680  29.473  0.00  0.00    -0.273 OA
ATOM     19  N   CYS A   4      19.729  18.852  27.963  0.00  0.00    -0.297 N 
ATOM     20  H   CYS A   4      19.252  19.454  27.262  0.00  0.00    +0.150 HD
BRANCH  19  21
ATOM     21  CA  CYS A   4      19.270  17.488  28.161  0.00  0.00    +0.149 C 
BRANCH  21  22
ATOM     22  CB  CYS A   4      17.807  17.511  28.598  0.00  0.00    +0.096 C 
ATOM     23  SG  CYS A   4      17.520  18.509  30.095  0.00  0.00    -0.080 S 
ENDBRANCH  21  22
BRANCH  21  24
ATOM     24  C   CYS A   4      19.438  16.561  26.966  0.00  0.00    +0.228 C 
ATOM     25  O   CYS A   4      18.459  16.045  26.433  0.00  0.00    -0.286 OA
ENDBRANCH  21  24
ENDBRANCH  19  21
ENDBRANCH  16  17
BRANCH  16  26
ATOM     26  CB  THR A   3      22.558  20.914  27.951  0.00  0.00    +0.137 C 
ATOM     27  CG2 THR A   3      22.791  20.148  26.657  0.00  0.00    +0.034 C 
BRANCH  26  28
ATOM     28  OG1 THR A   3      22.864  22.295  27.732  0.00  0.00    -0.382 OA
ATOM     29  HG1 THR A   3      23.807  22.381  27.444  0.00  0.00    +0.210 HD
ENDBRANCH  26  28
ENDBRANCH  16  26
ENDBRANCH  13  16
ENDBRANCH   1  12
BRANCH   1  30
ATOM     30  CB  TRP A   2      18.258  23.168  31.460  0.00  0.00    +0.057 C 
BRANCH  30  31
ATOM     31  CG  TRP A   2      18.065  23.819  32.802  0.00  0.00    -0.002 A 
ATOM     32  CD1 TRP A   2      18.255  23.244  34.029  0.00  0.00    +0.068 A 
ATOM     33  NE1 TRP A   2      17.912  24.129  35.027  0.00  0.00    -0.352 N 
ATOM     34  HE1 TRP A   2      17.961  23.938  36.048  0.00  0.00    +0.166 HD
ATOM     35  CE2 TRP A   2      17.496  25.302  34.455  0.00  0.00    +0.056 A 
ATOM     36  CZ2 TRP A   2      17.051  26.486  35.050  0.00  0.00    +0.017 A 
ATOM     37  CH2 TRP A   2      16.693  27.517  34.221  0.00  0.00    +0.001 A 
ATOM     38  CZ3 TRP A   2      16.771  27.396  32.822  0.00  0.00    +0.000 A 
ATOM     39  CE3 TRP A   2      17.214  26.216  32.226  0.00  0.00    +0.001 A 
ATOM     40  CD2 TRP A   2      17.585  25.145  33.052  0.00  0.00    +0.013 A 
ENDBRANCH  30  31
ENDBRANCH   1  30
TORSDOF 15
REMARK  Name = ../refined-set-2016/1s19/1s19_pocket.pdb
REMARK  277 active torsions:
REMARK  status: ('A' for Active; 'I' for Inactive)
REMARK    1  A    between atoms: _1  and  _3
REMARK    2  A    between atoms: _3  and  _4
REMARK    3  A    between atoms: _3  and  _6
REMARK    4  A    between atoms: _6  and  _7
REMARK    5  A    between atoms: _10  and  _12
REMARK    6  A    between atoms: _12  and  _13
REMARK    7  A    between atoms: _12  and  _15
REMARK    8  A    between atoms: _15  and  _16
REMARK    9  A    between atoms: _21  and  _22
REMARK   10  A    between atoms: _24  and  _26
REMARK   11  A    between atoms: _26  and  _27
REMARK   12  A    between atoms: _26  and  _29
REMARK   13  A    between atoms: _29  and  _30
REMARK   14  A    between atoms: _33  and  _35
REMARK   15  A    between atoms: _35  and  _36
REMARK   16  A    between atoms: _35  and  _38
REMARK   17  A    between atoms: _38  and  _39
REMARK   18  A    between atoms: _44  and  _45
REMARK   19  A    between atoms: _47  and  _49
REMARK   20  A    between atoms: _49  and  _50
REMARK   21  A    between atoms: _49  and  _52
REMARK   22  A    between atoms: _52  and  _53
REMARK   23  A    between atoms: _59  and  _61
REMARK   24  A    between atoms: _61  and  _62
REMARK   25  A    between atoms: _61  and  _64
REMARK   26  A    between atoms: _64  and  _65
REMARK   27  A    between atoms: _71  and  _73
REMARK   28  A    between atoms: _73  and  _74
REMARK   29  A    between atoms: _73  and  _76
REMARK   30  A    between atoms: _76  and  _77
REMARK   31  A    between atoms: _77  and  _78
REMARK   32  A    between atoms: _78  and  _79
REMARK   33  A    between atoms: _88  and  _90
REMARK   34  A    between atoms: _90  and  _91
REMARK   35  A    between atoms: _90  and  _93
REMARK   36  A    between atoms: _93  and  _94
REMARK   37  A    between atoms: _94  and  _95
REMARK   38  A    between atoms: _97  and  _99
REMARK   39  A    between atoms: _99  and  _100
REMARK   40  A    between atoms: _99  and  _102
REMARK   41  A    between atoms: _102  and  _103
REMARK   42  A    between atoms: _107  and  _108
REMARK   43  A    between atoms: _113  and  _115
REMARK   44  A    between atoms: _115  and  _116
REMARK   45  A    between atoms: _115  and  _118
REMARK   46  A    between atoms: _118  and  _119
REMARK   47  A    between atoms: _124  and  _126
REMARK   48  A    between atoms: _126  and  _127
REMARK   49  A    between atoms: _126  and  _129
REMARK   50  A    between atoms: _129  and  _130
REMARK   51  A    between atoms: _133  and  _135
REMARK   52  A    between atoms: _135  and  _136
REMARK   53  A    between atoms: _139  and  _141
REMARK   54  A    between atoms: _141  and  _142
REMARK   55  A    between atoms: _141  and  _144
REMARK   56  A    between atoms: _144  and  _145
REMARK   57  A    between atoms: _148  and  _150
REMARK   58  A    between atoms: _150  and  _151
REMARK   59  A    between atoms: _150  and  _153
REMARK   60  A    between atoms: _153  and  _154
REMARK   61  A    between atoms: _157  and  _159
REMARK   62  A    between atoms: _159  and  _160
REMARK   63  A    between atoms: _159  and  _162
REMARK   64  A    between atoms: _165  and  _167
REMARK   65  A    between atoms: _167  and  _168
REMARK   66  A    between atoms: _167  and  _170
REMARK   67  A    between atoms: _170  and  _171
REMARK   68  A    between atoms: _173  and  _175
REMARK   69  A    between atoms: _175  and  _176
REMARK   70  A    between atoms: _175  and  _178
REMARK   71  A    between atoms: _178  and  _179
REMARK   72  A    between atoms: _184  and  _185
REMARK   73  A    between atoms: _187  and  _189
REMARK   74  A    between atoms: _189  and  _190
REMARK   75  A    between atoms: _189  and  _192
REMARK   76  A    between atoms: _192  and  _193
REMARK   77  A    between atoms: _195  and  _197
REMARK   78  A    between atoms: _197  and  _198
REMARK   79  A    between atoms: _197  and  _200
REMARK   80  A    between atoms: _200  and  _201
REMARK   81  A    between atoms: _204  and  _206
REMARK   82  A    between atoms: _206  and  _207
REMARK   83  A    between atoms: _206  and  _209
REMARK   84  A    between atoms: _209  and  _210
REMARK   85  A    between atoms: _210  and  _211
REMARK   86  A    between atoms: _211  and  _212
REMARK   87  A    between atoms: _212  and  _213
REMARK   88  A    between atoms: _217  and  _219
REMARK   89  A    between atoms: _219  and  _220
REMARK   90  A    between atoms: _219  and  _222
REMARK   91  A    between atoms: _225  and  _227
REMARK   92  A    between atoms: _227  and  _228
REMARK   93  A    between atoms: _231  and  _233
REMARK   94  A    between atoms: _233  and  _234
REMARK   95  A    between atoms: _233  and  _236
REMARK   96  A    between atoms: _236  and  _237
REMARK   97  A    between atoms: _240  and  _242
REMARK   98  A    between atoms: _242  and  _243
REMARK   99  A    between atoms: _242  and  _245
REMARK  100  A    between atoms: _245  and  _246
REMARK  101  A    between atoms: _246  and  _247
REMARK  102  A    between atoms: _250  and  _252
REMARK  103  A    between atoms: _252  and  _253
REMARK  104  A    between atoms: _252  and  _255
REMARK  105  A    between atoms: _258  and  _260
REMARK  106  A    between atoms: _260  and  _261
REMARK  107  A    between atoms: _260  and  _263
REMARK  108  A    between atoms: _263  and  _264
REMARK  109  A    between atoms: _267  and  _269
REMARK  110  A    between atoms: _269  and  _270
REMARK  111  A    between atoms: _269  and  _272
REMARK  112  A    between atoms: _272  and  _273
REMARK  113  A    between atoms: _273  and  _274
REMARK  114  A    between atoms: _276  and  _278
REMARK  115  A    between atoms: _278  and  _279
REMARK  116  A    between atoms: _278  and  _281
REMARK  117  A    between atoms: _281  and  _282
REMARK  118  A    between atoms: _285  and  _287
REMARK  119  A    between atoms: _287  and  _288
REMARK  120  A    between atoms: _287  and  _290
REMARK  121  A    between atoms: _290  and  _291
REMARK  122  A    between atoms: _291  and  _292
REMARK  123  A    between atoms: _292  and  _293
REMARK  124  A    between atoms: _302  and  _304
REMARK  125  A    between atoms: _304  and  _305
REMARK  126  A    between atoms: _304  and  _307
REMARK  127  A    between atoms: _307  and  _308
REMARK  128  A    between atoms: _310  and  _312
REMARK  129  A    between atoms: _312  and  _313
REMARK  130  A    between atoms: _312  and  _315
REMARK  131  A    between atoms: _315  and  _316
REMARK  132  A    between atoms: _321  and  _323
REMARK  133  A    between atoms: _323  and  _324
REMARK  134  A    between atoms: _323  and  _326
REMARK  135  A    between atoms: _326  and  _327
REMARK  136  A    between atoms: _327  and  _328
REMARK  137  A    between atoms: _331  and  _333
REMARK  138  A    between atoms: _333  and  _334
REMARK  139  A    between atoms: _333  and  _336
REMARK  140  A    between atoms: _336  and  _337
REMARK  141  A    between atoms: _339  and  _341
REMARK  142  A    between atoms: _341  and  _342
REMARK  143  A    between atoms: _341  and  _344
REMARK  144  A    between atoms: _344  and  _345
REMARK  145  A    between atoms: _351  and  _353
REMARK  146  A    between atoms: _353  and  _354
REMARK  147  A    between atoms: _353  and  _356
REMARK  148  A    between atoms: _356  and  _357
REMARK  149  A    between atoms: _359  and  _361
REMARK  150  A    between atoms: _361  and  _362
REMARK  151  A    between atoms: _361  and  _364
REMARK  152  A    between atoms: _364  and  _365
REMARK  153  A    between atoms: _375  and  _377
REMARK  154  A    between atoms: _377  and  _378
REMARK  155  A    between atoms: _377  and  _380
REMARK  156  A    between atoms: _380  and  _381
REMARK  157  A    between atoms: _384  and  _386
REMARK  158  A    between atoms: _386  and  _387
REMARK  159  A    between atoms: _386  and  _389
REMARK  160  A    between atoms: _391  and  _393
REMARK  161  A    between atoms: _393  and  _394
REMARK  162  A    between atoms: _393  and  _396
REMARK  163  A    between atoms: _396  and  _397
REMARK  164  A    between atoms: _402  and  _403
REMARK  165  A    between atoms: _405  and  _407
REMARK  166  A    between atoms: _407  and  _408
REMARK  167  A    between atoms: _407  and  _410
REMARK  168  A    between atoms: _410  and  _411
REMARK  169  A    between atoms: _411  and  _412
REMARK  170  A    between atoms: _412  and  _413
REMARK  171  A    between atoms: _413  and  _414
REMARK  172  A    between atoms: _418  and  _420
REMARK  173  A    between atoms: _420  and  _421
REMARK  174  A    between atoms: _420  and  _423
REMARK  175  A    between atoms: _423  and  _424
REMARK  176  A    between atoms: _429  and  _430
REMARK  177  A    between atoms: _432  and  _434
REMARK  178  A    between atoms: _434  and  _435
REMARK  179  A    between atoms: _434  and  _437
REMARK  180  A    between atoms: _437  and  _438
REMARK  181  A    between atoms: _438  and  _439
REMARK  182  A    between atoms: _439  and  _440
REMARK  183  A    between atoms: _449  and  _451
REMARK  184  A    between atoms: _451  and  _452
REMARK  185  A    between atoms: _451  and  _454
REMARK  186  A    between atoms: _457  and  _459
REMARK  187  A    between atoms: _459  and  _460
REMARK  188  A    between atoms: _459  and  _462
REMARK  189  A    between atoms: _462  and  _463
REMARK  190  A    between atoms: _466  and  _468
REMARK  191  A    between atoms: _468  and  _469
REMARK  192  A    between atoms: _468  and  _471
REMARK  193  A    between atoms: _474  and  _476
REMARK  194  A    between atoms: _476  and  _477
REMARK  195  A    between atoms: _476  and  _479
REMARK  196  A    between atoms: _479  and  _480
REMARK  197  A    between atoms: _483  and  _485
REMARK  198  A    between atoms: _485  and  _486
REMARK  199  A    between atoms: _489  and  _491
REMARK  200  A    between atoms: _491  and  _492
REMARK  201  A    between atoms: _494  and  _496
REMARK  202  A    between atoms: _496  and  _497
REMARK  203  A    between atoms: _496  and  _499
REMARK  204  A    between atoms: _499  and  _500
REMARK  205  A    between atoms: _505  and  _507
REMARK  206  A    between atoms: _507  and  _508
REMARK  207  A    between atoms: _507  and  _510
REMARK  208  A    between atoms: _510  and  _511
REMARK  209  A    between atoms: _513  and  _515
REMARK  210  A    between atoms: _515  and  _516
REMARK  211  A    between atoms: _515  and  _518
REMARK  212  A    between atoms: _518  and  _519
REMARK  213  A    between atoms: _522  and  _524
REMARK  214  A    between atoms: _524  and  _525
REMARK  215  A    between atoms: _524  and  _527
REMARK  216  A    between atoms: _527  and  _528
REMARK  217  A    between atoms: _531  and  _533
REMARK  218  A    between atoms: _533  and  _534
REMARK  219  A    between atoms: _533  and  _536
REMARK  220  A    between atoms: _536  and  _537
REMARK  221  A    between atoms: _540  and  _542
REMARK  222  A    between atoms: _542  and  _543
REMARK  223  A    between atoms: _542  and  _545
REMARK  224  A    between atoms: _545  and  _546
REMARK  225  A    between atoms: _549  and  _551
REMARK  226  A    between atoms: _551  and  _552
REMARK  227  A    between atoms: _551  and  _554
REMARK  228  A    between atoms: _554  and  _555
REMARK  229  A    between atoms: _555  and  _556
REMARK  230  A    between atoms: _561  and  _563
REMARK  231  A    between atoms: _563  and  _564
REMARK  232  A    between atoms: _563  and  _566
REMARK  233  A    between atoms: _566  and  _567
REMARK  234  A    between atoms: _570  and  _572
REMARK  235  A    between atoms: _572  and  _573
REMARK  236  A    between atoms: _572  and  _575
REMARK  237  A    between atoms: _575  and  _576
REMARK  238  A    between atoms: _581  and  _583
REMARK  239  A    between atoms: _583  and  _584
REMARK  240  A    between atoms: _583  and  _586
REMARK  241  A    between atoms: _586  and  _587
REMARK  242  A    between atoms: _589  and  _591
REMARK  243  A    between atoms: _591  and  _592
REMARK  244  A    between atoms: _591  and  _594
REMARK  245  A    between atoms: _594  and  _595
REMARK  246  A    between atoms: _595  and  _596
REMARK  247  A    between atoms: _601  and  _603
REMARK  248  A    between atoms: _603  and  _604
REMARK  249  A    between atoms: _603  and  _606
REMARK  250  A    between atoms: _606  and  _607
REMARK  251  A    between atoms: _612  and  _613
REMARK  252  A    between atoms: _615  and  _617
REMARK  253  A    between atoms: _617  and  _618
REMARK  254  A    between atoms: _617  and  _620
REMARK  255  A    between atoms: _620  and  _621
REMARK  256  A    between atoms: _624  and  _626
REMARK  257  A    between atoms: _626  and  _627
REMARK  258  A    between atoms: _626  and  _629
REMARK  259  A    between atoms: _629  and  _630
REMARK  260  A    between atoms: _630  and  _631
REMARK  261  A    between atoms: _631  and  _632
REMARK  262  A    between atoms: _632  and  _633
REMARK  263  A    between atoms: _637  and  _639
REMARK  264  A    between atoms: _639  and  _640
REMARK  265  A    between atoms: _639  and  _642
REMARK  266  A    between atoms: _642  and  _643
REMARK  267  A    between atoms: _646  and  _648
REMARK  268  A    between atoms: _648  and  _649
REMARK  269  A    between atoms: _648  and  _651
REMARK  270  A    between atoms: _651  and  _652
REMARK  271  A    between atoms: _655  and  _657
REMARK  272  A    between atoms: _657  and  _658
REMARK  273  A    between atoms: _657  and  _660
REMARK  274  A    between atoms: _663  and  _665
REMARK  275  A    between atoms: _665  and  _666
REMARK  276  A    between atoms: _665  and  _668
REMARK  277  A    between atoms: _668  and  _669
REMARK                            x       y       z     vdW  Elec       q    Type
REMARK                         _______ _______ _______ _____ _____    ______ ____
ROOT
ATOM      1  CA  TYR A   3      16.507  25.075  27.350  0.00  0.00    +0.153 C 
ENDROOT
BRANCH   1   3
ATOM      2  C   LYS A   2      17.519  23.630  25.713  0.00  0.00    +0.241 C 
ATOM      3  N   TYR A   3      17.405  23.996  26.982  0.00  0.00    -0.297 N 
ATOM      4  H   TYR A   3      17.960  23.509  27.715  0.00  0.00    +0.150 HD
ATOM      5  O   LYS A   2      16.893  24.179  24.802  0.00  0.00    -0.273 OA
BRANCH   2   6
ATOM      6  CA  LYS A   2      18.454  22.466  25.418  0.00  0.00    +0.149 C 
BRANCH   6   9
ATOM      7  C   TYR A   1      17.203  20.384  25.283  0.00  0.00    +0.239 C 
ATOM      8  O   TYR A   1      17.592  20.014  26.389  0.00  0.00    -0.274 OA
ATOM      9  N   LYS A   2      17.590  21.524  24.723  0.00  0.00    -0.297 N 
ATOM     10  H   LYS A   2      17.267  21.750  23.761  0.00  0.00    +0.150 HD
BRANCH   7  11
ATOM     11  CA  TYR A   1      16.249  19.530  24.460  0.00  0.00    +0.149 C 
BRANCH  11  12
ATOM     12  N   TYR A   1      16.557  19.509  23.038  0.00  0.00    -0.238 NA
ATOM     13  H   TYR A   1      17.340  18.917  22.693  0.00  0.00    +0.142 HD
ENDBRANCH  11  12
BRANCH  11  14
ATOM     14  CB  TYR A   1      16.200  18.096  24.992  0.00  0.00    +0.053 C 
BRANCH  14  15
ATOM     15  CG  TYR A   1      15.239  17.229  24.210  0.00  0.00    -0.020 A 
ATOM     16  CD2 TYR A   1      15.572  15.923  23.863  0.00  0.00    -0.001 A 
ATOM     17  CE2 TYR A   1      14.727  15.150  23.072  0.00  0.00    +0.036 A 
ATOM     18  CZ  TYR A   1      13.531  15.684  22.622  0.00  0.00    +0.134 A 
ATOM     19  CE1 TYR A   1      13.171  16.974  22.963  0.00  0.00    +0.036 A 
ATOM     20  CD1 TYR A   1      14.023  17.740  23.755  0.00  0.00    -0.001 A 
BRANCH  18  21
ATOM     21  OH  TYR A   1      12.712  14.936  21.800  0.00  0.00    -0.506 OA
ATOM     22  HH  TYR A   1      12.611  15.396  20.929  0.00  0.00    +0.292 HD
ENDBRANCH  18  21
ENDBRANCH  14  15
ENDBRANCH  11  14
ENDBRANCH   7  11
ENDBRANCH   6   9
BRANCH   6  23
ATOM     23  CB  LYS A   2      19.611  22.937  24.529  0.00  0.00    +0.029 C 
BRANCH  23  24
ATOM     24  CG  LYS A   2      20.448  24.045  25.172  0.00  0.00    +0.000 C 
BRANCH  24  25
ATOM     25  CD  LYS A   2      21.466  24.645  24.202  0.00  0.00    -0.024 C 
BRANCH  25  26
ATOM     26  CE  LYS A   2      22.800  23.919  24.248  0.00  0.00    -0.086 C 
BRANCH  26  27
ATOM     27  NZ  LYS A   2      23.527  24.191  25.520  0.00  0.00    +0.380 N 
ATOM     28  HZ1 LYS A   2      22.950  23.870  26.323  0.00  0.00    -0.089 HD
ATOM     29  HZ2 LYS A   2      23.705  25.212  25.605  0.00  0.00    -0.089 HD
ATOM     30  HZ3 LYS A   2      24.433  23.680  25.516  0.00  0.00    -0.089 HD
ENDBRANCH  26  27
ENDBRANCH  25  26
ENDBRANCH  24  25
ENDBRANCH  23  24
ENDBRANCH   6  23
ENDBRANCH   2   6
ENDBRANCH   1   3
BRANCH   1  31
ATOM     31  C   TYR A   3      17.253  26.308  27.845  0.00  0.00    +0.241 C 
ATOM     32  O   TYR A   3      18.066  26.228  28.759  0.00  0.00    -0.273 OA
ATOM     33  N   ARG A   4      16.967  27.442  27.212  0.00  0.00    -0.297 N 
ATOM     34  H   ARG A   4      16.276  27.418  26.435  0.00  0.00    +0.150 HD
BRANCH  33  35
ATOM     35  CA  ARG A   4      17.581  28.717  27.560  0.00  0.00    +0.149 C 
BRANCH  35  36
ATOM     36  C   ARG A   4      16.500  29.636  28.103  0.00  0.00    +0.241 C 
ATOM     37  N   VAL A   5      16.912  30.821  28.545  0.00  0.00    -0.298 N 
ATOM     38  H   VAL A   5      17.928  31.041  28.508  0.00  0.00    +0.150 HD
ATOM     39  O   ARG A   4      15.324  29.288  28.097  0.00  0.00    -0.273 OA
BRANCH  37  40
ATOM     40  CA  VAL A   5      15.998  31.825  29.080  0.00  0.00    +0.137 C 
BRANCH  40  41
ATOM     41  CB  VAL A   5      16.749  33.142  29.403  0.00  0.00    +0.026 C 
ATOM     42  CG2 VAL A   5      17.715  32.918  30.549  0.00  0.00    +0.002 C 
ATOM     43  CG1 VAL A   5      15.757  34.238  29.760  0.00  0.00    +0.002 C 
ENDBRANCH  40  41
BRANCH  40  44
ATOM     44  C   VAL A   5      14.884  32.145  28.084  0.00  0.00    +0.227 C 
ATOM     45  O   VAL A   5      13.723  32.296  28.466  0.00  0.00    -0.286 OA
ENDBRANCH  40  44
ENDBRANCH  37  40
ENDBRANCH  35  36
BRANCH  35  46
ATOM     46  CB  ARG A   4      18.185  29.380  26.323  0.00  0.00    +0.033 C 
BRANCH  46  47
ATOM     47  CG  ARG A   4      19.133  28.518  25.515  0.00  0.00    +0.045 C 
BRANCH  47  48
ATOM     48  CD  ARG A   4      19.674  29.323  24.347  0.00  0.00    +0.174 C 
BRANCH  48  49
ATOM     49  NE  ARG A   4      20.703  28.614  23.589  0.00  0.00    -0.265 N 
ATOM     50  HE  ARG A   4      21.687  28.932  23.697  0.00  0.00    +0.259 HD
ATOM     51  CZ  ARG A   4      20.472  27.591  22.771  0.00  0.00    +0.342 C 
ATOM     52  NH2 ARG A   4      19.235  27.139  22.594  0.00  0.00    -0.292 N 
ATOM     53 HH21 ARG A   4      18.441  27.585  23.096  0.00  0.00    +0.255 HD
ATOM     54 HH22 ARG A   4      19.061  26.339  21.953  0.00  0.00    +0.255 HD
ATOM     55  NH1 ARG A   4      21.483  27.025  22.122  0.00  0.00    -0.292 N 
ATOM     56 HH11 ARG A   4      22.451  27.382  22.254  0.00  0.00    +0.255 HD
ATOM     57 HH12 ARG A   4      21.307  26.225  21.481  0.00  0.00    +0.255 HD
ENDBRANCH  48  49
ENDBRANCH  47  48
ENDBRANCH  46  47
ENDBRANCH  35  46
ENDBRANCH  33  35
ENDBRANCH   1  31
BRANCH   1  58
ATOM     58  CB  TYR A   3      15.523  24.576  28.411  0.00  0.00    +0.055 C 
BRANCH  58  59
ATOM     59  CG  TYR A   3      14.937  23.213  28.079  0.00  0.00    -0.020 A 
ATOM     60  CD2 TYR A   3      15.329  22.072  28.782  0.00  0.00    -0.001 A 
ATOM     61  CE2 TYR A   3      14.801  20.818  28.475  0.00  0.00    +0.036 A 
ATOM     62  CZ  TYR A   3      13.874  20.698  27.454  0.00  0.00    +0.134 A 
ATOM     63  CE1 TYR A   3      13.472  21.815  26.737  0.00  0.00    +0.036 A 
ATOM     64  CD1 TYR A   3      14.003  23.064  27.054  0.00  0.00    -0.001 A 
BRANCH  62  65
ATOM     65  OH  TYR A   3      13.337  19.466  27.156  0.00  0.00    -0.506 OA
ATOM     66  HH  TYR A   3      12.356  19.496  27.283  0.00  0.00    +0.292 HD
ENDBRANCH  62  65
ENDBRANCH  58  59
ENDBRANCH   1  58
TORSDOF 26
REMARK  Name = ../refined-set-2016/1s19/1s19_pocket.pdb
REMARK  277 active torsions:
REMARK  status: ('A' for Active; 'I' for Inactive)
REMARK    1  A    between atoms: _1  and  _3
REMARK    2  A    between atoms: _3  and  _4
REMARK    3  A    between atoms: _3  and  _6
REMARK    4  A    between atoms: _6  and  _7
REMARK    5  A    between atoms: _10  and  _12
REMARK    6  A    between atoms: _12  and  _13
REMARK    7  A    between atoms: _12  and  _15
REMARK    8  A    between atoms: _15  and  _16
REMARK    9  A    between atoms: _21  and  _22
REMARK   10  A    between atoms: _24  and  _26
REMARK   11  A    between atoms: _26  and  _27
REMARK   12  A    between atoms: _26  and  _29
REMARK   13  A    between atoms: _29  and  _30
REMARK   14  A    between atoms: _33  and  _35
REMARK   15  A    between atoms: _35  and  _36
REMARK   16  A    between atoms: _35  and  _38
REMARK   17  A    between atoms: _38  and  _39
REMARK   18  A    between atoms: _44  and  _45
REMARK   19  A    between atoms: _47  and  _49
REMARK   20  A    between atoms: _49  and  _50
REMARK   21  A    between atoms: _49  and  _52
REMARK   22  A    between atoms: _52  and  _53
REMARK   23  A    between atoms: _59  and  _61
REMARK   24  A    between atoms: _61  and  _62
REMARK   25  A    between atoms: _61  and  _64
REMARK   26  A    between atoms: _64  and  _65
REMARK   27  A    between atoms: _71  and  _73
REMARK   28  A    between atoms: _73  and  _74
REMARK   29  A    between atoms: _73  and  _76
REMARK   30  A    between atoms: _76  and  _77
REMARK   31  A    between atoms: _77  and  _78
REMARK   32  A    between atoms: _78  and  _79
REMARK   33  A    between atoms: _88  and  _90
REMARK   34  A    between atoms: _90  and  _91
REMARK   35  A    between atoms: _90  and  _93
REMARK   36  A    between atoms: _93  and  _94
REMARK   37  A    between atoms: _94  and  _95
REMARK   38  A    between atoms: _97  and  _99
REMARK   39  A    between atoms: _99  and  _100
REMARK   40  A    between atoms: _99  and  _102
REMARK   41  A    between atoms: _102  and  _103
REMARK   42  A    between atoms: _107  and  _108
REMARK   43  A    between atoms: _113  and  _115
REMARK   44  A    between atoms: _115  and  _116
REMARK   45  A    between atoms: _115  and  _118
REMARK   46  A    between atoms: _118  and  _119
REMARK   47  A    between atoms: _124  and  _126
REMARK   48  A    between atoms: _126  and  _127
REMARK   49  A    between atoms: _126  and  _129
REMARK   50  A    between atoms: _129  and  _130
REMARK   51  A    between atoms: _133  and  _135
REMARK   52  A    between atoms: _135  and  _136
REMARK   53  A    between atoms: _139  and  _141
REMARK   54  A    between atoms: _141  and  _142
REMARK   55  A    between atoms: _141  and  _144
REMARK   56  A    between atoms: _144  and  _145
REMARK   57  A    between atoms: _148  and  _150
REMARK   58  A    between atoms: _150  and  _151
REMARK   59  A    between atoms: _150  and  _153
REMARK   60  A    between atoms: _153  and  _154
REMARK   61  A    between atoms: _157  and  _159
REMARK   62  A    between atoms: _159  and  _160
REMARK   63  A    between atoms: _159  and  _162
REMARK   64  A    between atoms: _165  and  _167
REMARK   65  A    between atoms: _167  and  _168
REMARK   66  A    between atoms: _167  and  _170
REMARK   67  A    between atoms: _170  and  _171
REMARK   68  A    between atoms: _173  and  _175
REMARK   69  A    between atoms: _175  and  _176
REMARK   70  A    between atoms: _175  and  _178
REMARK   71  A    between atoms: _178  and  _179
REMARK   72  A    between atoms: _184  and  _185
REMARK   73  A    between atoms: _187  and  _189
REMARK   74  A    between atoms: _189  and  _190
REMARK   75  A    between atoms: _189  and  _192
REMARK   76  A    between atoms: _192  and  _193
REMARK   77  A    between atoms: _195  and  _197
REMARK   78  A    between atoms: _197  and  _198
REMARK   79  A    between atoms: _197  and  _200
REMARK   80  A    between atoms: _200  and  _201
REMARK   81  A    between atoms: _204  and  _206
REMARK   82  A    between atoms: _206  and  _207
REMARK   83  A    between atoms: _206  and  _209
REMARK   84  A    between atoms: _209  and  _210
REMARK   85  A    between atoms: _210  and  _211
REMARK   86  A    between atoms: _211  and  _212
REMARK   87  A    between atoms: _212  and  _213
REMARK   88  A    between atoms: _217  and  _219
REMARK   89  A    between atoms: _219  and  _220
REMARK   90  A    between atoms: _219  and  _222
REMARK   91  A    between atoms: _225  and  _227
REMARK   92  A    between atoms: _227  and  _228
REMARK   93  A    between atoms: _231  and  _233
REMARK   94  A    between atoms: _233  and  _234
REMARK   95  A    between atoms: _233  and  _236
REMARK   96  A    between atoms: _236  and  _237
REMARK   97  A    between atoms: _240  and  _242
REMARK   98  A    between atoms: _242  and  _243
REMARK   99  A    between atoms: _242  and  _245
REMARK  100  A    between atoms: _245  and  _246
REMARK  101  A    between atoms: _246  and  _247
REMARK  102  A    between atoms: _250  and  _252
REMARK  103  A    between atoms: _252  and  _253
REMARK  104  A    between atoms: _252  and  _255
REMARK  105  A    between atoms: _258  and  _260
REMARK  106  A    between atoms: _260  and  _261
REMARK  107  A    between atoms: _260  and  _263
REMARK  108  A    between atoms: _263  and  _264
REMARK  109  A    between atoms: _267  and  _269
REMARK  110  A    between atoms: _269  and  _270
REMARK  111  A    between atoms: _269  and  _272
REMARK  112  A    between atoms: _272  and  _273
REMARK  113  A    between atoms: _273  and  _274
REMARK  114  A    between atoms: _276  and  _278
REMARK  115  A    between atoms: _278  and  _279
REMARK  116  A    between atoms: _278  and  _281
REMARK  117  A    between atoms: _281  and  _282
REMARK  118  A    between atoms: _285  and  _287
REMARK  119  A    between atoms: _287  and  _288
REMARK  120  A    between atoms: _287  and  _290
REMARK  121  A    between atoms: _290  and  _291
REMARK  122  A    between atoms: _291  and  _292
REMARK  123  A    between atoms: _292  and  _293
REMARK  124  A    between atoms: _302  and  _304
REMARK  125  A    between atoms: _304  and  _305
REMARK  126  A    between atoms: _304  and  _307
REMARK  127  A    between atoms: _307  and  _308
REMARK  128  A    between atoms: _310  and  _312
REMARK  129  A    between atoms: _312  and  _313
REMARK  130  A    between atoms: _312  and  _315
REMARK  131  A    between atoms: _315  and  _316
REMARK  132  A    between atoms: _321  and  _323
REMARK  133  A    between atoms: _323  and  _324
REMARK  134  A    between atoms: _323  and  _326
REMARK  135  A    between atoms: _326  and  _327
REMARK  136  A    between atoms: _327  and  _328
REMARK  137  A    between atoms: _331  and  _333
REMARK  138  A    between atoms: _333  and  _334
REMARK  139  A    between atoms: _333  and  _336
REMARK  140  A    between atoms: _336  and  _337
REMARK  141  A    between atoms: _339  and  _341
REMARK  142  A    between atoms: _341  and  _342
REMARK  143  A    between atoms: _341  and  _344
REMARK  144  A    between atoms: _344  and  _345
REMARK  145  A    between atoms: _351  and  _353
REMARK  146  A    between atoms: _353  and  _354
REMARK  147  A    between atoms: _353  and  _356
REMARK  148  A    between atoms: _356  and  _357
REMARK  149  A    between atoms: _359  and  _361
REMARK  150  A    between atoms: _361  and  _362
REMARK  151  A    between atoms: _361  and  _364
REMARK  152  A    between atoms: _364  and  _365
REMARK  153  A    between atoms: _375  and  _377
REMARK  154  A    between atoms: _377  and  _378
REMARK  155  A    between atoms: _377  and  _380
REMARK  156  A    between atoms: _380  and  _381
REMARK  157  A    between atoms: _384  and  _386
REMARK  158  A    between atoms: _386  and  _387
REMARK  159  A    between atoms: _386  and  _389
REMARK  160  A    between atoms: _391  and  _393
REMARK  161  A    between atoms: _393  and  _394
REMARK  162  A    between atoms: _393  and  _396
REMARK  163  A    between atoms: _396  and  _397
REMARK  164  A    between atoms: _402  and  _403
REMARK  165  A    between atoms: _405  and  _407
REMARK  166  A    between atoms: _407  and  _408
REMARK  167  A    between atoms: _407  and  _410
REMARK  168  A    between atoms: _410  and  _411
REMARK  169  A    between atoms: _411  and  _412
REMARK  170  A    between atoms: _412  and  _413
REMARK  171  A    between atoms: _413  and  _414
REMARK  172  A    between atoms: _418  and  _420
REMARK  173  A    between atoms: _420  and  _421
REMARK  174  A    between atoms: _420  and  _423
REMARK  175  A    between atoms: _423  and  _424
REMARK  176  A    between atoms: _429  and  _430
REMARK  177  A    between atoms: _432  and  _434
REMARK  178  A    between atoms: _434  and  _435
REMARK  179  A    between atoms: _434  and  _437
REMARK  180  A    between atoms: _437  and  _438
REMARK  181  A    between atoms: _438  and  _439
REMARK  182  A    between atoms: _439  and  _440
REMARK  183  A    between atoms: _449  and  _451
REMARK  184  A    between atoms: _451  and  _452
REMARK  185  A    between atoms: _451  and  _454
REMARK  186  A    between atoms: _457  and  _459
REMARK  187  A    between atoms: _459  and  _460
REMARK  188  A    between atoms: _459  and  _462
REMARK  189  A    between atoms: _462  and  _463
REMARK  190  A    between atoms: _466  and  _468
REMARK  191  A    between atoms: _468  and  _469
REMARK  192  A    between atoms: _468  and  _471
REMARK  193  A    between atoms: _474  and  _476
REMARK  194  A    between atoms: _476  and  _477
REMARK  195  A    between atoms: _476  and  _479
REMARK  196  A    between atoms: _479  and  _480
REMARK  197  A    between atoms: _483  and  _485
REMARK  198  A    between atoms: _485  and  _486
REMARK  199  A    between atoms: _489  and  _491
REMARK  200  A    between atoms: _491  and  _492
REMARK  201  A    between atoms: _494  and  _496
REMARK  202  A    between atoms: _496  and  _497
REMARK  203  A    between atoms: _496  and  _499
REMARK  204  A    between atoms: _499  and  _500
REMARK  205  A    between atoms: _505  and  _507
REMARK  206  A    between atoms: _507  and  _508
REMARK  207  A    between atoms: _507  and  _510
REMARK  208  A    between atoms: _510  and  _511
REMARK  209  A    between atoms: _513  and  _515
REMARK  210  A    between atoms: _515  and  _516
REMARK  211  A    between atoms: _515  and  _518
REMARK  212  A    between atoms: _518  and  _519
REMARK  213  A    between atoms: _522  and  _524
REMARK  214  A    between atoms: _524  and  _525
REMARK  215  A    between atoms: _524  and  _527
REMARK  216  A    between atoms: _527  and  _528
REMARK  217  A    between atoms: _531  and  _533
REMARK  218  A    between atoms: _533  and  _534
REMARK  219  A    between atoms: _533  and  _536
REMARK  220  A    between atoms: _536  and  _537
REMARK  221  A    between atoms: _540  and  _542
REMARK  222  A    between atoms: _542  and  _543
REMARK  223  A    between atoms: _542  and  _545
REMARK  224  A    between atoms: _545  and  _546
REMARK  225  A    between atoms: _549  and  _551
REMARK  226  A    between atoms: _551  and  _552
REMARK  227  A    between atoms: _551  and  _554
REMARK  228  A    between atoms: _554  and  _555
REMARK  229  A    between atoms: _555  and  _556
REMARK  230  A    between atoms: _561  and  _563
REMARK  231  A    between atoms: _563  and  _564
REMARK  232  A    between atoms: _563  and  _566
REMARK  233  A    between atoms: _566  and  _567
REMARK  234  A    between atoms: _570  and  _572
REMARK  235  A    between atoms: _572  and  _573
REMARK  236  A    between atoms: _572  and  _575
REMARK  237  A    between atoms: _575  and  _576
REMARK  238  A    between atoms: _581  and  _583
REMARK  239  A    between atoms: _583  and  _584
REMARK  240  A    between atoms: _583  and  _586
REMARK  241  A    between atoms: _586  and  _587
REMARK  242  A    between atoms: _589  and  _591
REMARK  243  A    between atoms: _591  and  _592
REMARK  244  A    between atoms: _591  and  _594
REMARK  245  A    between atoms: _594  and  _595
REMARK  246  A    between atoms: _595  and  _596
REMARK  247  A    between atoms: _601  and  _603
REMARK  248  A    between atoms: _603  and  _604
REMARK  249  A    between atoms: _603  and  _606
REMARK  250  A    between atoms: _606  and  _607
REMARK  251  A    between atoms: _612  and  _613
REMARK  252  A    between atoms: _615  and  _617
REMARK  253  A    between atoms: _617  and  _618
REMARK  254  A    between atoms: _617  and  _620
REMARK  255  A    between atoms: _620  and  _621
REMARK  256  A    between atoms: _624  and  _626
REMARK  257  A    between atoms: _626  and  _627
REMARK  258  A    between atoms: _626  and  _629
REMARK  259  A    between atoms: _629  and  _630
REMARK  260  A    between atoms: _630  and  _631
REMARK  261  A    between atoms: _631  and  _632
REMARK  262  A    between atoms: _632  and  _633
REMARK  263  A    between atoms: _637  and  _639
REMARK  264  A    between atoms: _639  and  _640
REMARK  265  A    between atoms: _639  and  _642
REMARK  266  A    between atoms: _642  and  _643
REMARK  267  A    between atoms: _646  and  _648
REMARK  268  A    between atoms: _648  and  _649
REMARK  269  A    between atoms: _648  and  _651
REMARK  270  A    between atoms: _651  and  _652
REMARK  271  A    between atoms: _655  and  _657
REMARK  272  A    between atoms: _657  and  _658
REMARK  273  A    between atoms: _657  and  _660
REMARK  274  A    between atoms: _663  and  _665
REMARK  275  A    between atoms: _665  and  _666
REMARK  276  A    between atoms: _665  and  _668
REMARK  277  A    between atoms: _668  and  _669
REMARK                            x       y       z     vdW  Elec       q    Type
REMARK                         _______ _______ _______ _____ _____    ______ ____
ROOT
ATOM      1  CA  VAL A   2      11.020  29.837  29.189  0.00  0.00    +0.148 C 
ENDROOT
BRANCH   1   3
ATOM      2  C   ASP A   1      11.528  29.236  26.901  0.00  0.00    +0.239 C 
ATOM      3  N   VAL A   2      11.932  29.743  28.060  0.00  0.00    -0.297 N 
ATOM      4  H   VAL A   2      12.912  30.077  28.161  0.00  0.00    +0.150 HD
ATOM      5  O   ASP A   1      10.386  28.823  26.719  0.00  0.00    -0.274 OA
BRANCH   2   6
ATOM      6  CA  ASP A   1      12.565  29.167  25.790  0.00  0.00    +0.156 C 
BRANCH   6   7
ATOM      7  N   ASP A   1      13.541  30.251  25.915  0.00  0.00    -0.238 NA
ATOM      8  H   ASP A   1      14.492  30.044  26.282  0.00  0.00    +0.142 HD
ENDBRANCH   6   7
BRANCH   6   9
ATOM      9  CB  ASP A   1      13.246  27.798  25.859  0.00  0.00    +0.140 C 
BRANCH   9  10
ATOM     10  CG  ASP A   1      14.144  27.537  24.685  0.00  0.00    +0.367 C 
ATOM     11  OD2 ASP A   1      15.329  27.224  24.913  0.00  0.00    -0.246 OA
ATOM     12  OD1 ASP A   1      13.663  27.642  23.537  0.00  0.00    -0.246 OA
ENDBRANCH   9  10
ENDBRANCH   6   9
ENDBRANCH   2   6
ENDBRANCH   1   3
BRANCH   1  13
ATOM     13  C   VAL A   2      10.043  30.995  28.990  0.00  0.00    +0.241 C 
ATOM     14  O   VAL A   2       8.882  30.909  29.397  0.00  0.00    -0.273 OA
ATOM     15  N   THR A   3      10.502  32.071  28.352  0.00  0.00    -0.296 N 
ATOM     16  H   THR A   3      11.492  32.100  28.034  0.00  0.00    +0.150 HD
BRANCH  15  17
ATOM     17  CA  THR A   3       9.627  33.208  28.096  0.00  0.00    +0.164 C 
BRANCH  17  18
ATOM     18  CB  THR A   3      10.402  34.429  27.546  0.00  0.00    +0.136 C 
ATOM     19  CG2 THR A   3      11.349  34.977  28.601  0.00  0.00    +0.034 C 
BRANCH  18  20
ATOM     20  OG1 THR A   3      11.149  34.046  26.389  0.00  0.00    -0.382 OA
ATOM     21  HG1 THR A   3      11.791  33.333  26.633  0.00  0.00    +0.210 HD
ENDBRANCH  18  20
ENDBRANCH  17  18
BRANCH  17  22
ATOM     22  C   THR A   3       8.563  32.783  27.087  0.00  0.00    +0.229 C 
ATOM     23  O   THR A   3       7.423  33.237  27.150  0.00  0.00    -0.286 OA
ENDBRANCH  17  22
ENDBRANCH  15  17
ENDBRANCH   1  13
BRANCH   1  24
ATOM     24  CB  VAL A   2      11.800  29.998  30.517  0.00  0.00    +0.027 C 
ATOM     25  CG2 VAL A   2      10.844  29.951  31.704  0.00  0.00    +0.002 C 
ATOM     26  CG1 VAL A   2      12.830  28.879  30.646  0.00  0.00    +0.002 C 
ENDBRANCH   1  24
TORSDOF 11
REMARK  Name = ../refined-set-2016/1s19/1s19_pocket.pdb
REMARK  277 active torsions:
REMARK  status: ('A' for Active; 'I' for Inactive)
REMARK    1  A    between atoms: _1  and  _3
REMARK    2  A    between atoms: _3  and  _4
REMARK    3  A    between atoms: _3  and  _6
REMARK    4  A    between atoms: _6  and  _7
REMARK    5  A    between atoms: _10  and  _12
REMARK    6  A    between atoms: _12  and  _13
REMARK    7  A    between atoms: _12  and  _15
REMARK    8  A    between atoms: _15  and  _16
REMARK    9  A    between atoms: _21  and  _22
REMARK   10  A    between atoms: _24  and  _26
REMARK   11  A    between atoms: _26  and  _27
REMARK   12  A    between atoms: _26  and  _29
REMARK   13  A    between atoms: _29  and  _30
REMARK   14  A    between atoms: _33  and  _35
REMARK   15  A    between atoms: _35  and  _36
REMARK   16  A    between atoms: _35  and  _38
REMARK   17  A    between atoms: _38  and  _39
REMARK   18  A    between atoms: _44  and  _45
REMARK   19  A    between atoms: _47  and  _49
REMARK   20  A    between atoms: _49  and  _50
REMARK   21  A    between atoms: _49  and  _52
REMARK   22  A    between atoms: _52  and  _53
REMARK   23  A    between atoms: _59  and  _61
REMARK   24  A    between atoms: _61  and  _62
REMARK   25  A    between atoms: _61  and  _64
REMARK   26  A    between atoms: _64  and  _65
REMARK   27  A    between atoms: _71  and  _73
REMARK   28  A    between atoms: _73  and  _74
REMARK   29  A    between atoms: _73  and  _76
REMARK   30  A    between atoms: _76  and  _77
REMARK   31  A    between atoms: _77  and  _78
REMARK   32  A    between atoms: _78  and  _79
REMARK   33  A    between atoms: _88  and  _90
REMARK   34  A    between atoms: _90  and  _91
REMARK   35  A    between atoms: _90  and  _93
REMARK   36  A    between atoms: _93  and  _94
REMARK   37  A    between atoms: _94  and  _95
REMARK   38  A    between atoms: _97  and  _99
REMARK   39  A    between atoms: _99  and  _100
REMARK   40  A    between atoms: _99  and  _102
REMARK   41  A    between atoms: _102  and  _103
REMARK   42  A    between atoms: _107  and  _108
REMARK   43  A    between atoms: _113  and  _115
REMARK   44  A    between atoms: _115  and  _116
REMARK   45  A    between atoms: _115  and  _118
REMARK   46  A    between atoms: _118  and  _119
REMARK   47  A    between atoms: _124  and  _126
REMARK   48  A    between atoms: _126  and  _127
REMARK   49  A    between atoms: _126  and  _129
REMARK   50  A    between atoms: _129  and  _130
REMARK   51  A    between atoms: _133  and  _135
REMARK   52  A    between atoms: _135  and  _136
REMARK   53  A    between atoms: _139  and  _141
REMARK   54  A    between atoms: _141  and  _142
REMARK   55  A    between atoms: _141  and  _144
REMARK   56  A    between atoms: _144  and  _145
REMARK   57  A    between atoms: _148  and  _150
REMARK   58  A    between atoms: _150  and  _151
REMARK   59  A    between atoms: _150  and  _153
REMARK   60  A    between atoms: _153  and  _154
REMARK   61  A    between atoms: _157  and  _159
REMARK   62  A    between atoms: _159  and  _160
REMARK   63  A    between atoms: _159  and  _162
REMARK   64  A    between atoms: _165  and  _167
REMARK   65  A    between atoms: _167  and  _168
REMARK   66  A    between atoms: _167  and  _170
REMARK   67  A    between atoms: _170  and  _171
REMARK   68  A    between atoms: _173  and  _175
REMARK   69  A    between atoms: _175  and  _176
REMARK   70  A    between atoms: _175  and  _178
REMARK   71  A    between atoms: _178  and  _179
REMARK   72  A    between atoms: _184  and  _185
REMARK   73  A    between atoms: _187  and  _189
REMARK   74  A    between atoms: _189  and  _190
REMARK   75  A    between atoms: _189  and  _192
REMARK   76  A    between atoms: _192  and  _193
REMARK   77  A    between atoms: _195  and  _197
REMARK   78  A    between atoms: _197  and  _198
REMARK   79  A    between atoms: _197  and  _200
REMARK   80  A    between atoms: _200  and  _201
REMARK   81  A    between atoms: _204  and  _206
REMARK   82  A    between atoms: _206  and  _207
REMARK   83  A    between atoms: _206  and  _209
REMARK   84  A    between atoms: _209  and  _210
REMARK   85  A    between atoms: _210  and  _211
REMARK   86  A    between atoms: _211  and  _212
REMARK   87  A    between atoms: _212  and  _213
REMARK   88  A    between atoms: _217  and  _219
REMARK   89  A    between atoms: _219  and  _220
REMARK   90  A    between atoms: _219  and  _222
REMARK   91  A    between atoms: _225  and  _227
REMARK   92  A    between atoms: _227  and  _228
REMARK   93  A    between atoms: _231  and  _233
REMARK   94  A    between atoms: _233  and  _234
REMARK   95  A    between atoms: _233  and  _236
REMARK   96  A    between atoms: _236  and  _237
REMARK   97  A    between atoms: _240  and  _242
REMARK   98  A    between atoms: _242  and  _243
REMARK   99  A    between atoms: _242  and  _245
REMARK  100  A    between atoms: _245  and  _246
REMARK  101  A    between atoms: _246  and  _247
REMARK  102  A    between atoms: _250  and  _252
REMARK  103  A    between atoms: _252  and  _253
REMARK  104  A    between atoms: _252  and  _255
REMARK  105  A    between atoms: _258  and  _260
REMARK  106  A    between atoms: _260  and  _261
REMARK  107  A    between atoms: _260  and  _263
REMARK  108  A    between atoms: _263  and  _264
REMARK  109  A    between atoms: _267  and  _269
REMARK  110  A    between atoms: _269  and  _270
REMARK  111  A    between atoms: _269  and  _272
REMARK  112  A    between atoms: _272  and  _273
REMARK  113  A    between atoms: _273  and  _274
REMARK  114  A    between atoms: _276  and  _278
REMARK  115  A    between atoms: _278  and  _279
REMARK  116  A    between atoms: _278  and  _281
REMARK  117  A    between atoms: _281  and  _282
REMARK  118  A    between atoms: _285  and  _287
REMARK  119  A    between atoms: _287  and  _288
REMARK  120  A    between atoms: _287  and  _290
REMARK  121  A    between atoms: _290  and  _291
REMARK  122  A    between atoms: _291  and  _292
REMARK  123  A    between atoms: _292  and  _293
REMARK  124  A    between atoms: _302  and  _304
REMARK  125  A    between atoms: _304  and  _305
REMARK  126  A    between atoms: _304  and  _307
REMARK  127  A    between atoms: _307  and  _308
REMARK  128  A    between atoms: _310  and  _312
REMARK  129  A    between atoms: _312  and  _313
REMARK  130  A    between atoms: _312  and  _315
REMARK  131  A    between atoms: _315  and  _316
REMARK  132  A    between atoms: _321  and  _323
REMARK  133  A    between atoms: _323  and  _324
REMARK  134  A    between atoms: _323  and  _326
REMARK  135  A    between atoms: _326  and  _327
REMARK  136  A    between atoms: _327  and  _328
REMARK  137  A    between atoms: _331  and  _333
REMARK  138  A    between atoms: _333  and  _334
REMARK  139  A    between atoms: _333  and  _336
REMARK  140  A    between atoms: _336  and  _337
REMARK  141  A    between atoms: _339  and  _341
REMARK  142  A    between atoms: _341  and  _342
REMARK  143  A    between atoms: _341  and  _344
REMARK  144  A    between atoms: _344  and  _345
REMARK  145  A    between atoms: _351  and  _353
REMARK  146  A    between atoms: _353  and  _354
REMARK  147  A    between atoms: _353  and  _356
REMARK  148  A    between atoms: _356  and  _357
REMARK  149  A    between atoms: _359  and  _361
REMARK  150  A    between atoms: _361  and  _362
REMARK  151  A    between atoms: _361  and  _364
REMARK  152  A    between atoms: _364  and  _365
REMARK  153  A    between atoms: _375  and  _377
REMARK  154  A    between atoms: _377  and  _378
REMARK  155  A    between atoms: _377  and  _380
REMARK  156  A    between atoms: _380  and  _381
REMARK  157  A    between atoms: _384  and  _386
REMARK  158  A    between atoms: _386  and  _387
REMARK  159  A    between atoms: _386  and  _389
REMARK  160  A    between atoms: _391  and  _393
REMARK  161  A    between atoms: _393  and  _394
REMARK  162  A    between atoms: _393  and  _396
REMARK  163  A    between atoms: _396  and  _397
REMARK  164  A    between atoms: _402  and  _403
REMARK  165  A    between atoms: _405  and  _407
REMARK  166  A    between atoms: _407  and  _408
REMARK  167  A    between atoms: _407  and  _410
REMARK  168  A    between atoms: _410  and  _411
REMARK  169  A    between atoms: _411  and  _412
REMARK  170  A    between atoms: _412  and  _413
REMARK  171  A    between atoms: _413  and  _414
REMARK  172  A    between atoms: _418  and  _420
REMARK  173  A    between atoms: _420  and  _421
REMARK  174  A    between atoms: _420  and  _423
REMARK  175  A    between atoms: _423  and  _424
REMARK  176  A    between atoms: _429  and  _430
REMARK  177  A    between atoms: _432  and  _434
REMARK  178  A    between atoms: _434  and  _435
REMARK  179  A    between atoms: _434  and  _437
REMARK  180  A    between atoms: _437  and  _438
REMARK  181  A    between atoms: _438  and  _439
REMARK  182  A    between atoms: _439  and  _440
REMARK  183  A    between atoms: _449  and  _451
REMARK  184  A    between atoms: _451  and  _452
REMARK  185  A    between atoms: _451  and  _454
REMARK  186  A    between atoms: _457  and  _459
REMARK  187  A    between atoms: _459  and  _460
REMARK  188  A    between atoms: _459  and  _462
REMARK  189  A    between atoms: _462  and  _463
REMARK  190  A    between atoms: _466  and  _468
REMARK  191  A    between atoms: _468  and  _469
REMARK  192  A    between atoms: _468  and  _471
REMARK  193  A    between atoms: _474  and  _476
REMARK  194  A    between atoms: _476  and  _477
REMARK  195  A    between atoms: _476  and  _479
REMARK  196  A    between atoms: _479  and  _480
REMARK  197  A    between atoms: _483  and  _485
REMARK  198  A    between atoms: _485  and  _486
REMARK  199  A    between atoms: _489  and  _491
REMARK  200  A    between atoms: _491  and  _492
REMARK  201  A    between atoms: _494  and  _496
REMARK  202  A    between atoms: _496  and  _497
REMARK  203  A    between atoms: _496  and  _499
REMARK  204  A    between atoms: _499  and  _500
REMARK  205  A    between atoms: _505  and  _507
REMARK  206  A    between atoms: _507  and  _508
REMARK  207  A    between atoms: _507  and  _510
REMARK  208  A    between atoms: _510  and  _511
REMARK  209  A    between atoms: _513  and  _515
REMARK  210  A    between atoms: _515  and  _516
REMARK  211  A    between atoms: _515  and  _518
REMARK  212  A    between atoms: _518  and  _519
REMARK  213  A    between atoms: _522  and  _524
REMARK  214  A    between atoms: _524  and  _525
REMARK  215  A    between atoms: _524  and  _527
REMARK  216  A    between atoms: _527  and  _528
REMARK  217  A    between atoms: _531  and  _533
REMARK  218  A    between atoms: _533  and  _534
REMARK  219  A    between atoms: _533  and  _536
REMARK  220  A    between atoms: _536  and  _537
REMARK  221  A    between atoms: _540  and  _542
REMARK  222  A    between atoms: _542  and  _543
REMARK  223  A    between atoms: _542  and  _545
REMARK  224  A    between atoms: _545  and  _546
REMARK  225  A    between atoms: _549  and  _551
REMARK  226  A    between atoms: _551  and  _552
REMARK  227  A    between atoms: _551  and  _554
REMARK  228  A    between atoms: _554  and  _555
REMARK  229  A    between atoms: _555  and  _556
REMARK  230  A    between atoms: _561  and  _563
REMARK  231  A    between atoms: _563  and  _564
REMARK  232  A    between atoms: _563  and  _566
REMARK  233  A    between atoms: _566  and  _567
REMARK  234  A    between atoms: _570  and  _572
REMARK  235  A    between atoms: _572  and  _573
REMARK  236  A    between atoms: _572  and  _575
REMARK  237  A    between atoms: _575  and  _576
REMARK  238  A    between atoms: _581  and  _583
REMARK  239  A    between atoms: _583  and  _584
REMARK  240  A    between atoms: _583  and  _586
REMARK  241  A    between atoms: _586  and  _587
REMARK  242  A    between atoms: _589  and  _591
REMARK  243  A    between atoms: _591  and  _592
REMARK  244  A    between atoms: _591  and  _594
REMARK  245  A    between atoms: _594  and  _595
REMARK  246  A    between atoms: _595  and  _596
REMARK  247  A    between atoms: _601  and  _603
REMARK  248  A    between atoms: _603  and  _604
REMARK  249  A    between atoms: _603  and  _606
REMARK  250  A    between atoms: _606  and  _607
REMARK  251  A    between atoms: _612  and  _613
REMARK  252  A    between atoms: _615  and  _617
REMARK  253  A    between atoms: _617  and  _618
REMARK  254  A    between atoms: _617  and  _620
REMARK  255  A    between atoms: _620  and  _621
REMARK  256  A    between atoms: _624  and  _626
REMARK  257  A    between atoms: _626  and  _627
REMARK  258  A    between atoms: _626  and  _629
REMARK  259  A    between atoms: _629  and  _630
REMARK  260  A    between atoms: _630  and  _631
REMARK  261  A    between atoms: _631  and  _632
REMARK  262  A    between atoms: _632  and  _633
REMARK  263  A    between atoms: _637  and  _639
REMARK  264  A    between atoms: _639  and  _640
REMARK  265  A    between atoms: _639  and  _642
REMARK  266  A    between atoms: _642  and  _643
REMARK  267  A    between atoms: _646  and  _648
REMARK  268  A    between atoms: _648  and  _649
REMARK  269  A    between atoms: _648  and  _651
REMARK  270  A    between atoms: _651  and  _652
REMARK  271  A    between atoms: _655  and  _657
REMARK  272  A    between atoms: _657  and  _658
REMARK  273  A    between atoms: _657  and  _660
REMARK  274  A    between atoms: _663  and  _665
REMARK  275  A    between atoms: _665  and  _666
REMARK  276  A    between atoms: _665  and  _668
REMARK  277  A    between atoms: _668  and  _669
REMARK                            x       y       z     vdW  Elec       q    Type
REMARK                         _______ _______ _______ _____ _____    ______ ____
ROOT
ATOM      1  CA  HIS A   3       6.931  33.225  32.103  0.00  0.00    +0.155 C 
ENDROOT
BRANCH   1   4
ATOM      2  C   GLY A   2       5.066  33.006  30.555  0.00  0.00    +0.243 C 
ATOM      3  O   GLY A   2       4.364  33.749  31.242  0.00  0.00    -0.273 OA
ATOM      4  N   HIS A   3       6.314  32.693  30.889  0.00  0.00    -0.297 N 
ATOM      5  H   HIS A   3       6.862  32.057  30.275  0.00  0.00    +0.150 HD
BRANCH   2   6
ATOM      6  CA  GLY A   2       4.509  32.410  29.271  0.00  0.00    +0.176 C 
BRANCH   6   9
ATOM      7  C   ALA A   1       5.208  30.189  28.617  0.00  0.00    +0.238 C 
ATOM      8  O   ALA A   1       4.383  29.671  29.365  0.00  0.00    -0.274 OA
ATOM      9  N   GLY A   2       5.362  31.507  28.513  0.00  0.00    -0.296 N 
ATOM     10  H   GLY A   2       6.096  31.894  27.886  0.00  0.00    +0.150 HD
BRANCH   7  11
ATOM     11  CA  ALA A   1       6.132  29.326  27.765  0.00  0.00    +0.145 C 
ATOM     12  CB  ALA A   1       6.842  28.291  28.639  0.00  0.00    +0.028 C 
BRANCH  11  13
ATOM     13  N   ALA A   1       7.100  30.173  27.076  0.00  0.00    -0.238 NA
ATOM     14  H   ALA A   1       7.924  30.539  27.595  0.00  0.00    +0.142 HD
ENDBRANCH  11  13
ENDBRANCH   7  11
ENDBRANCH   6   9
ENDBRANCH   2   6
ENDBRANCH   1   4
BRANCH   1  15
ATOM     15  C   HIS A   3       7.774  34.459  31.798  0.00  0.00    +0.241 C 
ATOM     16  N   SER A   4       7.920  35.341  32.786  0.00  0.00    -0.296 N 
ATOM     17  H   SER A   4       7.480  35.149  33.709  0.00  0.00    +0.150 HD
ATOM     18  O   HIS A   3       8.280  34.610  30.687  0.00  0.00    -0.273 OA
BRANCH  16  19
ATOM     19  CA  SER A   4       8.684  36.572  32.601  0.00  0.00    +0.166 C 
BRANCH  19  20
ATOM     20  C   SER A   4      10.048  36.532  33.284  0.00  0.00    +0.229 C 
ATOM     21  O   SER A   4      10.329  35.638  34.080  0.00  0.00    -0.286 OA
ENDBRANCH  19  20
BRANCH  19  22
ATOM     22  CB  SER A   4       7.890  37.762  33.132  0.00  0.00    +0.165 C 
BRANCH  22  23
ATOM     23  OG  SER A   4       7.902  37.776  34.547  0.00  0.00    -0.380 OA
ATOM     24  H   SER A   4       7.383  38.554  34.873  0.00  0.00    +0.211 HD
ENDBRANCH  22  23
ENDBRANCH  19  22
ENDBRANCH  16  19
ENDBRANCH   1  15
BRANCH   1  25
ATOM     25  CB  HIS A   3       7.792  32.151  32.764  0.00  0.00    +0.076 C 
BRANCH  25  26
ATOM     26  CG  HIS A   3       6.996  31.108  33.482  0.00  0.00    +0.082 A 
ATOM     27  ND1 HIS A   3       6.290  31.378  34.635  0.00  0.00    -0.227 NA
ATOM     28  CE1 HIS A   3       5.671  30.282  35.035  0.00  0.00    +0.199 A 
ATOM     29  NE2 HIS A   3       5.949  29.312  34.184  0.00  0.00    -0.221 NA
ATOM     30  CD2 HIS A   3       6.778  29.802  33.203  0.00  0.00    +0.115 A 
ENDBRANCH  25  26
ENDBRANCH   1  25
TORSDOF 12
REMARK  Name = ../refined-set-2016/1s19/1s19_pocket.pdb
REMARK  277 active torsions:
REMARK  status: ('A' for Active; 'I' for Inactive)
REMARK    1  A    between atoms: _1  and  _3
REMARK    2  A    between atoms: _3  and  _4
REMARK    3  A    between atoms: _3  and  _6
REMARK    4  A    between atoms: _6  and  _7
REMARK    5  A    between atoms: _10  and  _12
REMARK    6  A    between atoms: _12  and  _13
REMARK    7  A    between atoms: _12  and  _15
REMARK    8  A    between atoms: _15  and  _16
REMARK    9  A    between atoms: _21  and  _22
REMARK   10  A    between atoms: _24  and  _26
REMARK   11  A    between atoms: _26  and  _27
REMARK   12  A    between atoms: _26  and  _29
REMARK   13  A    between atoms: _29  and  _30
REMARK   14  A    between atoms: _33  and  _35
REMARK   15  A    between atoms: _35  and  _36
REMARK   16  A    between atoms: _35  and  _38
REMARK   17  A    between atoms: _38  and  _39
REMARK   18  A    between atoms: _44  and  _45
REMARK   19  A    between atoms: _47  and  _49
REMARK   20  A    between atoms: _49  and  _50
REMARK   21  A    between atoms: _49  and  _52
REMARK   22  A    between atoms: _52  and  _53
REMARK   23  A    between atoms: _59  and  _61
REMARK   24  A    between atoms: _61  and  _62
REMARK   25  A    between atoms: _61  and  _64
REMARK   26  A    between atoms: _64  and  _65
REMARK   27  A    between atoms: _71  and  _73
REMARK   28  A    between atoms: _73  and  _74
REMARK   29  A    between atoms: _73  and  _76
REMARK   30  A    between atoms: _76  and  _77
REMARK   31  A    between atoms: _77  and  _78
REMARK   32  A    between atoms: _78  and  _79
REMARK   33  A    between atoms: _88  and  _90
REMARK   34  A    between atoms: _90  and  _91
REMARK   35  A    between atoms: _90  and  _93
REMARK   36  A    between atoms: _93  and  _94
REMARK   37  A    between atoms: _94  and  _95
REMARK   38  A    between atoms: _97  and  _99
REMARK   39  A    between atoms: _99  and  _100
REMARK   40  A    between atoms: _99  and  _102
REMARK   41  A    between atoms: _102  and  _103
REMARK   42  A    between atoms: _107  and  _108
REMARK   43  A    between atoms: _113  and  _115
REMARK   44  A    between atoms: _115  and  _116
REMARK   45  A    between atoms: _115  and  _118
REMARK   46  A    between atoms: _118  and  _119
REMARK   47  A    between atoms: _124  and  _126
REMARK   48  A    between atoms: _126  and  _127
REMARK   49  A    between atoms: _126  and  _129
REMARK   50  A    between atoms: _129  and  _130
REMARK   51  A    between atoms: _133  and  _135
REMARK   52  A    between atoms: _135  and  _136
REMARK   53  A    between atoms: _139  and  _141
REMARK   54  A    between atoms: _141  and  _142
REMARK   55  A    between atoms: _141  and  _144
REMARK   56  A    between atoms: _144  and  _145
REMARK   57  A    between atoms: _148  and  _150
REMARK   58  A    between atoms: _150  and  _151
REMARK   59  A    between atoms: _150  and  _153
REMARK   60  A    between atoms: _153  and  _154
REMARK   61  A    between atoms: _157  and  _159
REMARK   62  A    between atoms: _159  and  _160
REMARK   63  A    between atoms: _159  and  _162
REMARK   64  A    between atoms: _165  and  _167
REMARK   65  A    between atoms: _167  and  _168
REMARK   66  A    between atoms: _167  and  _170
REMARK   67  A    between atoms: _170  and  _171
REMARK   68  A    between atoms: _173  and  _175
REMARK   69  A    between atoms: _175  and  _176
REMARK   70  A    between atoms: _175  and  _178
REMARK   71  A    between atoms: _178  and  _179
REMARK   72  A    between atoms: _184  and  _185
REMARK   73  A    between atoms: _187  and  _189
REMARK   74  A    between atoms: _189  and  _190
REMARK   75  A    between atoms: _189  and  _192
REMARK   76  A    between atoms: _192  and  _193
REMARK   77  A    between atoms: _195  and  _197
REMARK   78  A    between atoms: _197  and  _198
REMARK   79  A    between atoms: _197  and  _200
REMARK   80  A    between atoms: _200  and  _201
REMARK   81  A    between atoms: _204  and  _206
REMARK   82  A    between atoms: _206  and  _207
REMARK   83  A    between atoms: _206  and  _209
REMARK   84  A    between atoms: _209  and  _210
REMARK   85  A    between atoms: _210  and  _211
REMARK   86  A    between atoms: _211  and  _212
REMARK   87  A    between atoms: _212  and  _213
REMARK   88  A    between atoms: _217  and  _219
REMARK   89  A    between atoms: _219  and  _220
REMARK   90  A    between atoms: _219  and  _222
REMARK   91  A    between atoms: _225  and  _227
REMARK   92  A    between atoms: _227  and  _228
REMARK   93  A    between atoms: _231  and  _233
REMARK   94  A    between atoms: _233  and  _234
REMARK   95  A    between atoms: _233  and  _236
REMARK   96  A    between atoms: _236  and  _237
REMARK   97  A    between atoms: _240  and  _242
REMARK   98  A    between atoms: _242  and  _243
REMARK   99  A    between atoms: _242  and  _245
REMARK  100  A    between atoms: _245  and  _246
REMARK  101  A    between atoms: _246  and  _247
REMARK  102  A    between atoms: _250  and  _252
REMARK  103  A    between atoms: _252  and  _253
REMARK  104  A    between atoms: _252  and  _255
REMARK  105  A    between atoms: _258  and  _260
REMARK  106  A    between atoms: _260  and  _261
REMARK  107  A    between atoms: _260  and  _263
REMARK  108  A    between atoms: _263  and  _264
REMARK  109  A    between atoms: _267  and  _269
REMARK  110  A    between atoms: _269  and  _270
REMARK  111  A    between atoms: _269  and  _272
REMARK  112  A    between atoms: _272  and  _273
REMARK  113  A    between atoms: _273  and  _274
REMARK  114  A    between atoms: _276  and  _278
REMARK  115  A    between atoms: _278  and  _279
REMARK  116  A    between atoms: _278  and  _281
REMARK  117  A    between atoms: _281  and  _282
REMARK  118  A    between atoms: _285  and  _287
REMARK  119  A    between atoms: _287  and  _288
REMARK  120  A    between atoms: _287  and  _290
REMARK  121  A    between atoms: _290  and  _291
REMARK  122  A    between atoms: _291  and  _292
REMARK  123  A    between atoms: _292  and  _293
REMARK  124  A    between atoms: _302  and  _304
REMARK  125  A    between atoms: _304  and  _305
REMARK  126  A    between atoms: _304  and  _307
REMARK  127  A    between atoms: _307  and  _308
REMARK  128  A    between atoms: _310  and  _312
REMARK  129  A    between atoms: _312  and  _313
REMARK  130  A    between atoms: _312  and  _315
REMARK  131  A    between atoms: _315  and  _316
REMARK  132  A    between atoms: _321  and  _323
REMARK  133  A    between atoms: _323  and  _324
REMARK  134  A    between atoms: _323  and  _326
REMARK  135  A    between atoms: _326  and  _327
REMARK  136  A    between atoms: _327  and  _328
REMARK  137  A    between atoms: _331  and  _333
REMARK  138  A    between atoms: _333  and  _334
REMARK  139  A    between atoms: _333  and  _336
REMARK  140  A    between atoms: _336  and  _337
REMARK  141  A    between atoms: _339  and  _341
REMARK  142  A    between atoms: _341  and  _342
REMARK  143  A    between atoms: _341  and  _344
REMARK  144  A    between atoms: _344  and  _345
REMARK  145  A    between atoms: _351  and  _353
REMARK  146  A    between atoms: _353  and  _354
REMARK  147  A    between atoms: _353  and  _356
REMARK  148  A    between atoms: _356  and  _357
REMARK  149  A    between atoms: _359  and  _361
REMARK  150  A    between atoms: _361  and  _362
REMARK  151  A    between atoms: _361  and  _364
REMARK  152  A    between atoms: _364  and  _365
REMARK  153  A    between atoms: _375  and  _377
REMARK  154  A    between atoms: _377  and  _378
REMARK  155  A    between atoms: _377  and  _380
REMARK  156  A    between atoms: _380  and  _381
REMARK  157  A    between atoms: _384  and  _386
REMARK  158  A    between atoms: _386  and  _387
REMARK  159  A    between atoms: _386  and  _389
REMARK  160  A    between atoms: _391  and  _393
REMARK  161  A    between atoms: _393  and  _394
REMARK  162  A    between atoms: _393  and  _396
REMARK  163  A    between atoms: _396  and  _397
REMARK  164  A    between atoms: _402  and  _403
REMARK  165  A    between atoms: _405  and  _407
REMARK  166  A    between atoms: _407  and  _408
REMARK  167  A    between atoms: _407  and  _410
REMARK  168  A    between atoms: _410  and  _411
REMARK  169  A    between atoms: _411  and  _412
REMARK  170  A    between atoms: _412  and  _413
REMARK  171  A    between atoms: _413  and  _414
REMARK  172  A    between atoms: _418  and  _420
REMARK  173  A    between atoms: _420  and  _421
REMARK  174  A    between atoms: _420  and  _423
REMARK  175  A    between atoms: _423  and  _424
REMARK  176  A    between atoms: _429  and  _430
REMARK  177  A    between atoms: _432  and  _434
REMARK  178  A    between atoms: _434  and  _435
REMARK  179  A    between atoms: _434  and  _437
REMARK  180  A    between atoms: _437  and  _438
REMARK  181  A    between atoms: _438  and  _439
REMARK  182  A    between atoms: _439  and  _440
REMARK  183  A    between atoms: _449  and  _451
REMARK  184  A    between atoms: _451  and  _452
REMARK  185  A    between atoms: _451  and  _454
REMARK  186  A    between atoms: _457  and  _459
REMARK  187  A    between atoms: _459  and  _460
REMARK  188  A    between atoms: _459  and  _462
REMARK  189  A    between atoms: _462  and  _463
REMARK  190  A    between atoms: _466  and  _468
REMARK  191  A    between atoms: _468  and  _469
REMARK  192  A    between atoms: _468  and  _471
REMARK  193  A    between atoms: _474  and  _476
REMARK  194  A    between atoms: _476  and  _477
REMARK  195  A    between atoms: _476  and  _479
REMARK  196  A    between atoms: _479  and  _480
REMARK  197  A    between atoms: _483  and  _485
REMARK  198  A    between atoms: _485  and  _486
REMARK  199  A    between atoms: _489  and  _491
REMARK  200  A    between atoms: _491  and  _492
REMARK  201  A    between atoms: _494  and  _496
REMARK  202  A    between atoms: _496  and  _497
REMARK  203  A    between atoms: _496  and  _499
REMARK  204  A    between atoms: _499  and  _500
REMARK  205  A    between atoms: _505  and  _507
REMARK  206  A    between atoms: _507  and  _508
REMARK  207  A    between atoms: _507  and  _510
REMARK  208  A    between atoms: _510  and  _511
REMARK  209  A    between atoms: _513  and  _515
REMARK  210  A    between atoms: _515  and  _516
REMARK  211  A    between atoms: _515  and  _518
REMARK  212  A    between atoms: _518  and  _519
REMARK  213  A    between atoms: _522  and  _524
REMARK  214  A    between atoms: _524  and  _525
REMARK  215  A    between atoms: _524  and  _527
REMARK  216  A    between atoms: _527  and  _528
REMARK  217  A    between atoms: _531  and  _533
REMARK  218  A    between atoms: _533  and  _534
REMARK  219  A    between atoms: _533  and  _536
REMARK  220  A    between atoms: _536  and  _537
REMARK  221  A    between atoms: _540  and  _542
REMARK  222  A    between atoms: _542  and  _543
REMARK  223  A    between atoms: _542  and  _545
REMARK  224  A    between atoms: _545  and  _546
REMARK  225  A    between atoms: _549  and  _551
REMARK  226  A    between atoms: _551  and  _552
REMARK  227  A    between atoms: _551  and  _554
REMARK  228  A    between atoms: _554  and  _555
REMARK  229  A    between atoms: _555  and  _556
REMARK  230  A    between atoms: _561  and  _563
REMARK  231  A    between atoms: _563  and  _564
REMARK  232  A    between atoms: _563  and  _566
REMARK  233  A    between atoms: _566  and  _567
REMARK  234  A    between atoms: _570  and  _572
REMARK  235  A    between atoms: _572  and  _573
REMARK  236  A    between atoms: _572  and  _575
REMARK  237  A    between atoms: _575  and  _576
REMARK  238  A    between atoms: _581  and  _583
REMARK  239  A    between atoms: _583  and  _584
REMARK  240  A    between atoms: _583  and  _586
REMARK  241  A    between atoms: _586  and  _587
REMARK  242  A    between atoms: _589  and  _591
REMARK  243  A    between atoms: _591  and  _592
REMARK  244  A    between atoms: _591  and  _594
REMARK  245  A    between atoms: _594  and  _595
REMARK  246  A    between atoms: _595  and  _596
REMARK  247  A    between atoms: _601  and  _603
REMARK  248  A    between atoms: _603  and  _604
REMARK  249  A    between atoms: _603  and  _606
REMARK  250  A    between atoms: _606  and  _607
REMARK  251  A    between atoms: _612  and  _613
REMARK  252  A    between atoms: _615  and  _617
REMARK  253  A    between atoms: _617  and  _618
REMARK  254  A    between atoms: _617  and  _620
REMARK  255  A    between atoms: _620  and  _621
REMARK  256  A    between atoms: _624  and  _626
REMARK  257  A    between atoms: _626  and  _627
REMARK  258  A    between atoms: _626  and  _629
REMARK  259  A    between atoms: _629  and  _630
REMARK  260  A    between atoms: _630  and  _631
REMARK  261  A    between atoms: _631  and  _632
REMARK  262  A    between atoms: _632  and  _633
REMARK  263  A    between atoms: _637  and  _639
REMARK  264  A    between atoms: _639  and  _640
REMARK  265  A    between atoms: _639  and  _642
REMARK  266  A    between atoms: _642  and  _643
REMARK  267  A    between atoms: _646  and  _648
REMARK  268  A    between atoms: _648  and  _649
REMARK  269  A    between atoms: _648  and  _651
REMARK  270  A    between atoms: _651  and  _652
REMARK  271  A    between atoms: _655  and  _657
REMARK  272  A    between atoms: _657  and  _658
REMARK  273  A    between atoms: _657  and  _660
REMARK  274  A    between atoms: _663  and  _665
REMARK  275  A    between atoms: _665  and  _666
REMARK  276  A    between atoms: _665  and  _668
REMARK  277  A    between atoms: _668  and  _669
REMARK                            x       y       z     vdW  Elec       q    Type
REMARK                         _______ _______ _______ _____ _____    ______ ____
ROOT
ATOM      1  C   LEU A   1      12.420  33.985  37.049  0.00  0.00    +0.238 C 
ATOM      2  O   LEU A   1      13.248  33.492  37.811  0.00  0.00    -0.274 OA
ATOM      3  N   ILE A   2      12.600  34.067  35.734  0.00  0.00    -0.298 N 
ATOM      4  H   ILE A   2      11.884  34.553  35.158  0.00  0.00    +0.150 HD
ENDROOT
BRANCH   1   5
ATOM      5  CA  LEU A   1      11.119  34.576  37.582  0.00  0.00    +0.145 C 
BRANCH   5   6
ATOM      6  N   LEU A   1      10.916  35.909  37.032  0.00  0.00    -0.238 NA
ATOM      7  H   LEU A   1      10.541  36.013  36.068  0.00  0.00    +0.142 HD
ENDBRANCH   5   6
BRANCH   5   8
ATOM      8  CB  LEU A   1       9.956  33.650  37.200  0.00  0.00    +0.026 C 
BRANCH   8   9
ATOM      9  CG  LEU A   1      10.117  32.162  37.554  0.00  0.00    +0.002 C 
ATOM     10  CD2 LEU A   1      10.077  31.973  39.066  0.00  0.00    +0.000 C 
ATOM     11  CD1 LEU A   1       9.010  31.353  36.895  0.00  0.00    +0.000 C 
ENDBRANCH   8   9
ENDBRANCH   5   8
ENDBRANCH   1   5
BRANCH   3  12
ATOM     12  CA  ILE A   2      13.767  33.498  35.075  0.00  0.00    +0.137 C 
BRANCH  12  13
ATOM     13  C   ILE A   2      15.125  33.989  35.564  0.00  0.00    +0.227 C 
ATOM     14  O   ILE A   2      16.012  33.179  35.841  0.00  0.00    -0.286 OA
ENDBRANCH  12  13
BRANCH  12  15
ATOM     15  CB  ILE A   2      13.679  33.693  33.547  0.00  0.00    +0.026 C 
ATOM     16  CG2 ILE A   2      14.824  32.956  32.859  0.00  0.00    +0.002 C 
BRANCH  15  17
ATOM     17  CG1 ILE A   2      12.348  33.136  33.034  0.00  0.00    +0.002 C 
ATOM     18  CD1 ILE A   2      12.109  33.354  31.547  0.00  0.00    +0.000 C 
ENDBRANCH  15  17
ENDBRANCH  12  15
ENDBRANCH   3  12
TORSDOF 8
REMARK  Name = ../refined-set-2016/1s19/1s19_pocket.pdb
REMARK  277 active torsions:
REMARK  status: ('A' for Active; 'I' for Inactive)
REMARK    1  A    between atoms: _1  and  _3
REMARK    2  A    between atoms: _3  and  _4
REMARK    3  A    between atoms: _3  and  _6
REMARK    4  A    between atoms: _6  and  _7
REMARK    5  A    between atoms: _10  and  _12
REMARK    6  A    between atoms: _12  and  _13
REMARK    7  A    between atoms: _12  and  _15
REMARK    8  A    between atoms: _15  and  _16
REMARK    9  A    between atoms: _21  and  _22
REMARK   10  A    between atoms: _24  and  _26
REMARK   11  A    between atoms: _26  and  _27
REMARK   12  A    between atoms: _26  and  _29
REMARK   13  A    between atoms: _29  and  _30
REMARK   14  A    between atoms: _33  and  _35
REMARK   15  A    between atoms: _35  and  _36
REMARK   16  A    between atoms: _35  and  _38
REMARK   17  A    between atoms: _38  and  _39
REMARK   18  A    between atoms: _44  and  _45
REMARK   19  A    between atoms: _47  and  _49
REMARK   20  A    between atoms: _49  and  _50
REMARK   21  A    between atoms: _49  and  _52
REMARK   22  A    between atoms: _52  and  _53
REMARK   23  A    between atoms: _59  and  _61
REMARK   24  A    between atoms: _61  and  _62
REMARK   25  A    between atoms: _61  and  _64
REMARK   26  A    between atoms: _64  and  _65
REMARK   27  A    between atoms: _71  and  _73
REMARK   28  A    between atoms: _73  and  _74
REMARK   29  A    between atoms: _73  and  _76
REMARK   30  A    between atoms: _76  and  _77
REMARK   31  A    between atoms: _77  and  _78
REMARK   32  A    between atoms: _78  and  _79
REMARK   33  A    between atoms: _88  and  _90
REMARK   34  A    between atoms: _90  and  _91
REMARK   35  A    between atoms: _90  and  _93
REMARK   36  A    between atoms: _93  and  _94
REMARK   37  A    between atoms: _94  and  _95
REMARK   38  A    between atoms: _97  and  _99
REMARK   39  A    between atoms: _99  and  _100
REMARK   40  A    between atoms: _99  and  _102
REMARK   41  A    between atoms: _102  and  _103
REMARK   42  A    between atoms: _107  and  _108
REMARK   43  A    between atoms: _113  and  _115
REMARK   44  A    between atoms: _115  and  _116
REMARK   45  A    between atoms: _115  and  _118
REMARK   46  A    between atoms: _118  and  _119
REMARK   47  A    between atoms: _124  and  _126
REMARK   48  A    between atoms: _126  and  _127
REMARK   49  A    between atoms: _126  and  _129
REMARK   50  A    between atoms: _129  and  _130
REMARK   51  A    between atoms: _133  and  _135
REMARK   52  A    between atoms: _135  and  _136
REMARK   53  A    between atoms: _139  and  _141
REMARK   54  A    between atoms: _141  and  _142
REMARK   55  A    between atoms: _141  and  _144
REMARK   56  A    between atoms: _144  and  _145
REMARK   57  A    between atoms: _148  and  _150
REMARK   58  A    between atoms: _150  and  _151
REMARK   59  A    between atoms: _150  and  _153
REMARK   60  A    between atoms: _153  and  _154
REMARK   61  A    between atoms: _157  and  _159
REMARK   62  A    between atoms: _159  and  _160
REMARK   63  A    between atoms: _159  and  _162
REMARK   64  A    between atoms: _165  and  _167
REMARK   65  A    between atoms: _167  and  _168
REMARK   66  A    between atoms: _167  and  _170
REMARK   67  A    between atoms: _170  and  _171
REMARK   68  A    between atoms: _173  and  _175
REMARK   69  A    between atoms: _175  and  _176
REMARK   70  A    between atoms: _175  and  _178
REMARK   71  A    between atoms: _178  and  _179
REMARK   72  A    between atoms: _184  and  _185
REMARK   73  A    between atoms: _187  and  _189
REMARK   74  A    between atoms: _189  and  _190
REMARK   75  A    between atoms: _189  and  _192
REMARK   76  A    between atoms: _192  and  _193
REMARK   77  A    between atoms: _195  and  _197
REMARK   78  A    between atoms: _197  and  _198
REMARK   79  A    between atoms: _197  and  _200
REMARK   80  A    between atoms: _200  and  _201
REMARK   81  A    between atoms: _204  and  _206
REMARK   82  A    between atoms: _206  and  _207
REMARK   83  A    between atoms: _206  and  _209
REMARK   84  A    between atoms: _209  and  _210
REMARK   85  A    between atoms: _210  and  _211
REMARK   86  A    between atoms: _211  and  _212
REMARK   87  A    between atoms: _212  and  _213
REMARK   88  A    between atoms: _217  and  _219
REMARK   89  A    between atoms: _219  and  _220
REMARK   90  A    between atoms: _219  and  _222
REMARK   91  A    between atoms: _225  and  _227
REMARK   92  A    between atoms: _227  and  _228
REMARK   93  A    between atoms: _231  and  _233
REMARK   94  A    between atoms: _233  and  _234
REMARK   95  A    between atoms: _233  and  _236
REMARK   96  A    between atoms: _236  and  _237
REMARK   97  A    between atoms: _240  and  _242
REMARK   98  A    between atoms: _242  and  _243
REMARK   99  A    between atoms: _242  and  _245
REMARK  100  A    between atoms: _245  and  _246
REMARK  101  A    between atoms: _246  and  _247
REMARK  102  A    between atoms: _250  and  _252
REMARK  103  A    between atoms: _252  and  _253
REMARK  104  A    between atoms: _252  and  _255
REMARK  105  A    between atoms: _258  and  _260
REMARK  106  A    between atoms: _260  and  _261
REMARK  107  A    between atoms: _260  and  _263
REMARK  108  A    between atoms: _263  and  _264
REMARK  109  A    between atoms: _267  and  _269
REMARK  110  A    between atoms: _269  and  _270
REMARK  111  A    between atoms: _269  and  _272
REMARK  112  A    between atoms: _272  and  _273
REMARK  113  A    between atoms: _273  and  _274
REMARK  114  A    between atoms: _276  and  _278
REMARK  115  A    between atoms: _278  and  _279
REMARK  116  A    between atoms: _278  and  _281
REMARK  117  A    between atoms: _281  and  _282
REMARK  118  A    between atoms: _285  and  _287
REMARK  119  A    between atoms: _287  and  _288
REMARK  120  A    between atoms: _287  and  _290
REMARK  121  A    between atoms: _290  and  _291
REMARK  122  A    between atoms: _291  and  _292
REMARK  123  A    between atoms: _292  and  _293
REMARK  124  A    between atoms: _302  and  _304
REMARK  125  A    between atoms: _304  and  _305
REMARK  126  A    between atoms: _304  and  _307
REMARK  127  A    between atoms: _307  and  _308
REMARK  128  A    between atoms: _310  and  _312
REMARK  129  A    between atoms: _312  and  _313
REMARK  130  A    between atoms: _312  and  _315
REMARK  131  A    between atoms: _315  and  _316
REMARK  132  A    between atoms: _321  and  _323
REMARK  133  A    between atoms: _323  and  _324
REMARK  134  A    between atoms: _323  and  _326
REMARK  135  A    between atoms: _326  and  _327
REMARK  136  A    between atoms: _327  and  _328
REMARK  137  A    between atoms: _331  and  _333
REMARK  138  A    between atoms: _333  and  _334
REMARK  139  A    between atoms: _333  and  _336
REMARK  140  A    between atoms: _336  and  _337
REMARK  141  A    between atoms: _339  and  _341
REMARK  142  A    between atoms: _341  and  _342
REMARK  143  A    between atoms: _341  and  _344
REMARK  144  A    between atoms: _344  and  _345
REMARK  145  A    between atoms: _351  and  _353
REMARK  146  A    between atoms: _353  and  _354
REMARK  147  A    between atoms: _353  and  _356
REMARK  148  A    between atoms: _356  and  _357
REMARK  149  A    between atoms: _359  and  _361
REMARK  150  A    between atoms: _361  and  _362
REMARK  151  A    between atoms: _361  and  _364
REMARK  152  A    between atoms: _364  and  _365
REMARK  153  A    between atoms: _375  and  _377
REMARK  154  A    between atoms: _377  and  _378
REMARK  155  A    between atoms: _377  and  _380
REMARK  156  A    between atoms: _380  and  _381
REMARK  157  A    between atoms: _384  and  _386
REMARK  158  A    between atoms: _386  and  _387
REMARK  159  A    between atoms: _386  and  _389
REMARK  160  A    between atoms: _391  and  _393
REMARK  161  A    between atoms: _393  and  _394
REMARK  162  A    between atoms: _393  and  _396
REMARK  163  A    between atoms: _396  and  _397
REMARK  164  A    between atoms: _402  and  _403
REMARK  165  A    between atoms: _405  and  _407
REMARK  166  A    between atoms: _407  and  _408
REMARK  167  A    between atoms: _407  and  _410
REMARK  168  A    between atoms: _410  and  _411
REMARK  169  A    between atoms: _411  and  _412
REMARK  170  A    between atoms: _412  and  _413
REMARK  171  A    between atoms: _413  and  _414
REMARK  172  A    between atoms: _418  and  _420
REMARK  173  A    between atoms: _420  and  _421
REMARK  174  A    between atoms: _420  and  _423
REMARK  175  A    between atoms: _423  and  _424
REMARK  176  A    between atoms: _429  and  _430
REMARK  177  A    between atoms: _432  and  _434
REMARK  178  A    between atoms: _434  and  _435
REMARK  179  A    between atoms: _434  and  _437
REMARK  180  A    between atoms: _437  and  _438
REMARK  181  A    between atoms: _438  and  _439
REMARK  182  A    between atoms: _439  and  _440
REMARK  183  A    between atoms: _449  and  _451
REMARK  184  A    between atoms: _451  and  _452
REMARK  185  A    between atoms: _451  and  _454
REMARK  186  A    between atoms: _457  and  _459
REMARK  187  A    between atoms: _459  and  _460
REMARK  188  A    between atoms: _459  and  _462
REMARK  189  A    between atoms: _462  and  _463
REMARK  190  A    between atoms: _466  and  _468
REMARK  191  A    between atoms: _468  and  _469
REMARK  192  A    between atoms: _468  and  _471
REMARK  193  A    between atoms: _474  and  _476
REMARK  194  A    between atoms: _476  and  _477
REMARK  195  A    between atoms: _476  and  _479
REMARK  196  A    between atoms: _479  and  _480
REMARK  197  A    between atoms: _483  and  _485
REMARK  198  A    between atoms: _485  and  _486
REMARK  199  A    between atoms: _489  and  _491
REMARK  200  A    between atoms: _491  and  _492
REMARK  201  A    between atoms: _494  and  _496
REMARK  202  A    between atoms: _496  and  _497
REMARK  203  A    between atoms: _496  and  _499
REMARK  204  A    between atoms: _499  and  _500
REMARK  205  A    between atoms: _505  and  _507
REMARK  206  A    between atoms: _507  and  _508
REMARK  207  A    between atoms: _507  and  _510
REMARK  208  A    between atoms: _510  and  _511
REMARK  209  A    between atoms: _513  and  _515
REMARK  210  A    between atoms: _515  and  _516
REMARK  211  A    between atoms: _515  and  _518
REMARK  212  A    between atoms: _518  and  _519
REMARK  213  A    between atoms: _522  and  _524
REMARK  214  A    between atoms: _524  and  _525
REMARK  215  A    between atoms: _524  and  _527
REMARK  216  A    between atoms: _527  and  _528
REMARK  217  A    between atoms: _531  and  _533
REMARK  218  A    between atoms: _533  and  _534
REMARK  219  A    between atoms: _533  and  _536
REMARK  220  A    between atoms: _536  and  _537
REMARK  221  A    between atoms: _540  and  _542
REMARK  222  A    between atoms: _542  and  _543
REMARK  223  A    between atoms: _542  and  _545
REMARK  224  A    between atoms: _545  and  _546
REMARK  225  A    between atoms: _549  and  _551
REMARK  226  A    between atoms: _551  and  _552
REMARK  227  A    between atoms: _551  and  _554
REMARK  228  A    between atoms: _554  and  _555
REMARK  229  A    between atoms: _555  and  _556
REMARK  230  A    between atoms: _561  and  _563
REMARK  231  A    between atoms: _563  and  _564
REMARK  232  A    between atoms: _563  and  _566
REMARK  233  A    between atoms: _566  and  _567
REMARK  234  A    between atoms: _570  and  _572
REMARK  235  A    between atoms: _572  and  _573
REMARK  236  A    between atoms: _572  and  _575
REMARK  237  A    between atoms: _575  and  _576
REMARK  238  A    between atoms: _581  and  _583
REMARK  239  A    between atoms: _583  and  _584
REMARK  240  A    between atoms: _583  and  _586
REMARK  241  A    between atoms: _586  and  _587
REMARK  242  A    between atoms: _589  and  _591
REMARK  243  A    between atoms: _591  and  _592
REMARK  244  A    between atoms: _591  and  _594
REMARK  245  A    between atoms: _594  and  _595
REMARK  246  A    between atoms: _595  and  _596
REMARK  247  A    between atoms: _601  and  _603
REMARK  248  A    between atoms: _603  and  _604
REMARK  249  A    between atoms: _603  and  _606
REMARK  250  A    between atoms: _606  and  _607
REMARK  251  A    between atoms: _612  and  _613
REMARK  252  A    between atoms: _615  and  _617
REMARK  253  A    between atoms: _617  and  _618
REMARK  254  A    between atoms: _617  and  _620
REMARK  255  A    between atoms: _620  and  _621
REMARK  256  A    between atoms: _624  and  _626
REMARK  257  A    between atoms: _626  and  _627
REMARK  258  A    between atoms: _626  and  _629
REMARK  259  A    between atoms: _629  and  _630
REMARK  260  A    between atoms: _630  and  _631
REMARK  261  A    between atoms: _631  and  _632
REMARK  262  A    between atoms: _632  and  _633
REMARK  263  A    between atoms: _637  and  _639
REMARK  264  A    between atoms: _639  and  _640
REMARK  265  A    between atoms: _639  and  _642
REMARK  266  A    between atoms: _642  and  _643
REMARK  267  A    between atoms: _646  and  _648
REMARK  268  A    between atoms: _648  and  _649
REMARK  269  A    between atoms: _648  and  _651
REMARK  270  A    between atoms: _651  and  _652
REMARK  271  A    between atoms: _655  and  _657
REMARK  272  A    between atoms: _657  and  _658
REMARK  273  A    between atoms: _657  and  _660
REMARK  274  A    between atoms: _663  and  _665
REMARK  275  A    between atoms: _665  and  _666
REMARK  276  A    between atoms: _665  and  _668
REMARK  277  A    between atoms: _668  and  _669
REMARK                            x       y       z     vdW  Elec       q    Type
REMARK                         _______ _______ _______ _____ _____    ______ ____
ROOT
ATOM      1  C   LEU A   1      17.512  30.892  38.227  0.00  0.00    +0.238 C 
ATOM      2  O   LEU A   1      18.161  29.986  38.744  0.00  0.00    -0.274 OA
ATOM      3  N   ILE A   2      17.977  31.621  37.215  0.00  0.00    -0.298 N 
ATOM      4  H   ILE A   2      17.389  32.379  36.814  0.00  0.00    +0.150 HD
ENDROOT
BRANCH   1   5
ATOM      5  CA  LEU A   1      16.116  31.231  38.739  0.00  0.00    +0.145 C 
BRANCH   5   6
ATOM      6  N   LEU A   1      15.960  32.672  38.878  0.00  0.00    -0.238 NA
ATOM      7  H   LEU A   1      15.292  33.177  38.261  0.00  0.00    +0.142 HD
ENDBRANCH   5   6
BRANCH   5   8
ATOM      8  CB  LEU A   1      15.060  30.658  37.785  0.00  0.00    +0.026 C 
BRANCH   8   9
ATOM      9  CG  LEU A   1      15.170  29.157  37.468  0.00  0.00    +0.002 C 
ATOM     10  CD2 LEU A   1      15.188  28.350  38.749  0.00  0.00    +0.000 C 
ATOM     11  CD1 LEU A   1      14.011  28.730  36.585  0.00  0.00    +0.000 C 
ENDBRANCH   8   9
ENDBRANCH   5   8
ENDBRANCH   1   5
BRANCH   3  12
ATOM     12  CA  ILE A   2      19.305  31.367  36.662  0.00  0.00    +0.137 C 
BRANCH  12  13
ATOM     13  C   ILE A   2      20.362  31.660  37.722  0.00  0.00    +0.227 C 
ATOM     14  O   ILE A   2      21.338  30.923  37.866  0.00  0.00    -0.286 OA
ENDBRANCH  12  13
BRANCH  12  15
ATOM     15  CB  ILE A   2      19.583  32.245  35.418  0.00  0.00    +0.026 C 
ATOM     16  CG2 ILE A   2      21.037  32.090  34.983  0.00  0.00    +0.002 C 
BRANCH  15  17
ATOM     17  CG1 ILE A   2      18.635  31.857  34.278  0.00  0.00    +0.002 C 
ATOM     18  CD1 ILE A   2      18.816  30.435  33.773  0.00  0.00    +0.000 C 
ENDBRANCH  15  17
ENDBRANCH  12  15
ENDBRANCH   3  12
TORSDOF 8
REMARK  Name = ../refined-set-2016/1s19/1s19_pocket.pdb
REMARK  277 active torsions:
REMARK  status: ('A' for Active; 'I' for Inactive)
REMARK    1  A    between atoms: _1  and  _3
REMARK    2  A    between atoms: _3  and  _4
REMARK    3  A    between atoms: _3  and  _6
REMARK    4  A    between atoms: _6  and  _7
REMARK    5  A    between atoms: _10  and  _12
REMARK    6  A    between atoms: _12  and  _13
REMARK    7  A    between atoms: _12  and  _15
REMARK    8  A    between atoms: _15  and  _16
REMARK    9  A    between atoms: _21  and  _22
REMARK   10  A    between atoms: _24  and  _26
REMARK   11  A    between atoms: _26  and  _27
REMARK   12  A    between atoms: _26  and  _29
REMARK   13  A    between atoms: _29  and  _30
REMARK   14  A    between atoms: _33  and  _35
REMARK   15  A    between atoms: _35  and  _36
REMARK   16  A    between atoms: _35  and  _38
REMARK   17  A    between atoms: _38  and  _39
REMARK   18  A    between atoms: _44  and  _45
REMARK   19  A    between atoms: _47  and  _49
REMARK   20  A    between atoms: _49  and  _50
REMARK   21  A    between atoms: _49  and  _52
REMARK   22  A    between atoms: _52  and  _53
REMARK   23  A    between atoms: _59  and  _61
REMARK   24  A    between atoms: _61  and  _62
REMARK   25  A    between atoms: _61  and  _64
REMARK   26  A    between atoms: _64  and  _65
REMARK   27  A    between atoms: _71  and  _73
REMARK   28  A    between atoms: _73  and  _74
REMARK   29  A    between atoms: _73  and  _76
REMARK   30  A    between atoms: _76  and  _77
REMARK   31  A    between atoms: _77  and  _78
REMARK   32  A    between atoms: _78  and  _79
REMARK   33  A    between atoms: _88  and  _90
REMARK   34  A    between atoms: _90  and  _91
REMARK   35  A    between atoms: _90  and  _93
REMARK   36  A    between atoms: _93  and  _94
REMARK   37  A    between atoms: _94  and  _95
REMARK   38  A    between atoms: _97  and  _99
REMARK   39  A    between atoms: _99  and  _100
REMARK   40  A    between atoms: _99  and  _102
REMARK   41  A    between atoms: _102  and  _103
REMARK   42  A    between atoms: _107  and  _108
REMARK   43  A    between atoms: _113  and  _115
REMARK   44  A    between atoms: _115  and  _116
REMARK   45  A    between atoms: _115  and  _118
REMARK   46  A    between atoms: _118  and  _119
REMARK   47  A    between atoms: _124  and  _126
REMARK   48  A    between atoms: _126  and  _127
REMARK   49  A    between atoms: _126  and  _129
REMARK   50  A    between atoms: _129  and  _130
REMARK   51  A    between atoms: _133  and  _135
REMARK   52  A    between atoms: _135  and  _136
REMARK   53  A    between atoms: _139  and  _141
REMARK   54  A    between atoms: _141  and  _142
REMARK   55  A    between atoms: _141  and  _144
REMARK   56  A    between atoms: _144  and  _145
REMARK   57  A    between atoms: _148  and  _150
REMARK   58  A    between atoms: _150  and  _151
REMARK   59  A    between atoms: _150  and  _153
REMARK   60  A    between atoms: _153  and  _154
REMARK   61  A    between atoms: _157  and  _159
REMARK   62  A    between atoms: _159  and  _160
REMARK   63  A    between atoms: _159  and  _162
REMARK   64  A    between atoms: _165  and  _167
REMARK   65  A    between atoms: _167  and  _168
REMARK   66  A    between atoms: _167  and  _170
REMARK   67  A    between atoms: _170  and  _171
REMARK   68  A    between atoms: _173  and  _175
REMARK   69  A    between atoms: _175  and  _176
REMARK   70  A    between atoms: _175  and  _178
REMARK   71  A    between atoms: _178  and  _179
REMARK   72  A    between atoms: _184  and  _185
REMARK   73  A    between atoms: _187  and  _189
REMARK   74  A    between atoms: _189  and  _190
REMARK   75  A    between atoms: _189  and  _192
REMARK   76  A    between atoms: _192  and  _193
REMARK   77  A    between atoms: _195  and  _197
REMARK   78  A    between atoms: _197  and  _198
REMARK   79  A    between atoms: _197  and  _200
REMARK   80  A    between atoms: _200  and  _201
REMARK   81  A    between atoms: _204  and  _206
REMARK   82  A    between atoms: _206  and  _207
REMARK   83  A    between atoms: _206  and  _209
REMARK   84  A    between atoms: _209  and  _210
REMARK   85  A    between atoms: _210  and  _211
REMARK   86  A    between atoms: _211  and  _212
REMARK   87  A    between atoms: _212  and  _213
REMARK   88  A    between atoms: _217  and  _219
REMARK   89  A    between atoms: _219  and  _220
REMARK   90  A    between atoms: _219  and  _222
REMARK   91  A    between atoms: _225  and  _227
REMARK   92  A    between atoms: _227  and  _228
REMARK   93  A    between atoms: _231  and  _233
REMARK   94  A    between atoms: _233  and  _234
REMARK   95  A    between atoms: _233  and  _236
REMARK   96  A    between atoms: _236  and  _237
REMARK   97  A    between atoms: _240  and  _242
REMARK   98  A    between atoms: _242  and  _243
REMARK   99  A    between atoms: _242  and  _245
REMARK  100  A    between atoms: _245  and  _246
REMARK  101  A    between atoms: _246  and  _247
REMARK  102  A    between atoms: _250  and  _252
REMARK  103  A    between atoms: _252  and  _253
REMARK  104  A    between atoms: _252  and  _255
REMARK  105  A    between atoms: _258  and  _260
REMARK  106  A    between atoms: _260  and  _261
REMARK  107  A    between atoms: _260  and  _263
REMARK  108  A    between atoms: _263  and  _264
REMARK  109  A    between atoms: _267  and  _269
REMARK  110  A    between atoms: _269  and  _270
REMARK  111  A    between atoms: _269  and  _272
REMARK  112  A    between atoms: _272  and  _273
REMARK  113  A    between atoms: _273  and  _274
REMARK  114  A    between atoms: _276  and  _278
REMARK  115  A    between atoms: _278  and  _279
REMARK  116  A    between atoms: _278  and  _281
REMARK  117  A    between atoms: _281  and  _282
REMARK  118  A    between atoms: _285  and  _287
REMARK  119  A    between atoms: _287  and  _288
REMARK  120  A    between atoms: _287  and  _290
REMARK  121  A    between atoms: _290  and  _291
REMARK  122  A    between atoms: _291  and  _292
REMARK  123  A    between atoms: _292  and  _293
REMARK  124  A    between atoms: _302  and  _304
REMARK  125  A    between atoms: _304  and  _305
REMARK  126  A    between atoms: _304  and  _307
REMARK  127  A    between atoms: _307  and  _308
REMARK  128  A    between atoms: _310  and  _312
REMARK  129  A    between atoms: _312  and  _313
REMARK  130  A    between atoms: _312  and  _315
REMARK  131  A    between atoms: _315  and  _316
REMARK  132  A    between atoms: _321  and  _323
REMARK  133  A    between atoms: _323  and  _324
REMARK  134  A    between atoms: _323  and  _326
REMARK  135  A    between atoms: _326  and  _327
REMARK  136  A    between atoms: _327  and  _328
REMARK  137  A    between atoms: _331  and  _333
REMARK  138  A    between atoms: _333  and  _334
REMARK  139  A    between atoms: _333  and  _336
REMARK  140  A    between atoms: _336  and  _337
REMARK  141  A    between atoms: _339  and  _341
REMARK  142  A    between atoms: _341  and  _342
REMARK  143  A    between atoms: _341  and  _344
REMARK  144  A    between atoms: _344  and  _345
REMARK  145  A    between atoms: _351  and  _353
REMARK  146  A    between atoms: _353  and  _354
REMARK  147  A    between atoms: _353  and  _356
REMARK  148  A    between atoms: _356  and  _357
REMARK  149  A    between atoms: _359  and  _361
REMARK  150  A    between atoms: _361  and  _362
REMARK  151  A    between atoms: _361  and  _364
REMARK  152  A    between atoms: _364  and  _365
REMARK  153  A    between atoms: _375  and  _377
REMARK  154  A    between atoms: _377  and  _378
REMARK  155  A    between atoms: _377  and  _380
REMARK  156  A    between atoms: _380  and  _381
REMARK  157  A    between atoms: _384  and  _386
REMARK  158  A    between atoms: _386  and  _387
REMARK  159  A    between atoms: _386  and  _389
REMARK  160  A    between atoms: _391  and  _393
REMARK  161  A    between atoms: _393  and  _394
REMARK  162  A    between atoms: _393  and  _396
REMARK  163  A    between atoms: _396  and  _397
REMARK  164  A    between atoms: _402  and  _403
REMARK  165  A    between atoms: _405  and  _407
REMARK  166  A    between atoms: _407  and  _408
REMARK  167  A    between atoms: _407  and  _410
REMARK  168  A    between atoms: _410  and  _411
REMARK  169  A    between atoms: _411  and  _412
REMARK  170  A    between atoms: _412  and  _413
REMARK  171  A    between atoms: _413  and  _414
REMARK  172  A    between atoms: _418  and  _420
REMARK  173  A    between atoms: _420  and  _421
REMARK  174  A    between atoms: _420  and  _423
REMARK  175  A    between atoms: _423  and  _424
REMARK  176  A    between atoms: _429  and  _430
REMARK  177  A    between atoms: _432  and  _434
REMARK  178  A    between atoms: _434  and  _435
REMARK  179  A    between atoms: _434  and  _437
REMARK  180  A    between atoms: _437  and  _438
REMARK  181  A    between atoms: _438  and  _439
REMARK  182  A    between atoms: _439  and  _440
REMARK  183  A    between atoms: _449  and  _451
REMARK  184  A    between atoms: _451  and  _452
REMARK  185  A    between atoms: _451  and  _454
REMARK  186  A    between atoms: _457  and  _459
REMARK  187  A    between atoms: _459  and  _460
REMARK  188  A    between atoms: _459  and  _462
REMARK  189  A    between atoms: _462  and  _463
REMARK  190  A    between atoms: _466  and  _468
REMARK  191  A    between atoms: _468  and  _469
REMARK  192  A    between atoms: _468  and  _471
REMARK  193  A    between atoms: _474  and  _476
REMARK  194  A    between atoms: _476  and  _477
REMARK  195  A    between atoms: _476  and  _479
REMARK  196  A    between atoms: _479  and  _480
REMARK  197  A    between atoms: _483  and  _485
REMARK  198  A    between atoms: _485  and  _486
REMARK  199  A    between atoms: _489  and  _491
REMARK  200  A    between atoms: _491  and  _492
REMARK  201  A    between atoms: _494  and  _496
REMARK  202  A    between atoms: _496  and  _497
REMARK  203  A    between atoms: _496  and  _499
REMARK  204  A    between atoms: _499  and  _500
REMARK  205  A    between atoms: _505  and  _507
REMARK  206  A    between atoms: _507  and  _508
REMARK  207  A    between atoms: _507  and  _510
REMARK  208  A    between atoms: _510  and  _511
REMARK  209  A    between atoms: _513  and  _515
REMARK  210  A    between atoms: _515  and  _516
REMARK  211  A    between atoms: _515  and  _518
REMARK  212  A    between atoms: _518  and  _519
REMARK  213  A    between atoms: _522  and  _524
REMARK  214  A    between atoms: _524  and  _525
REMARK  215  A    between atoms: _524  and  _527
REMARK  216  A    between atoms: _527  and  _528
REMARK  217  A    between atoms: _531  and  _533
REMARK  218  A    between atoms: _533  and  _534
REMARK  219  A    between atoms: _533  and  _536
REMARK  220  A    between atoms: _536  and  _537
REMARK  221  A    between atoms: _540  and  _542
REMARK  222  A    between atoms: _542  and  _543
REMARK  223  A    between atoms: _542  and  _545
REMARK  224  A    between atoms: _545  and  _546
REMARK  225  A    between atoms: _549  and  _551
REMARK  226  A    between atoms: _551  and  _552
REMARK  227  A    between atoms: _551  and  _554
REMARK  228  A    between atoms: _554  and  _555
REMARK  229  A    between atoms: _555  and  _556
REMARK  230  A    between atoms: _561  and  _563
REMARK  231  A    between atoms: _563  and  _564
REMARK  232  A    between atoms: _563  and  _566
REMARK  233  A    between atoms: _566  and  _567
REMARK  234  A    between atoms: _570  and  _572
REMARK  235  A    between atoms: _572  and  _573
REMARK  236  A    between atoms: _572  and  _575
REMARK  237  A    between atoms: _575  and  _576
REMARK  238  A    between atoms: _581  and  _583
REMARK  239  A    between atoms: _583  and  _584
REMARK  240  A    between atoms: _583  and  _586
REMARK  241  A    between atoms: _586  and  _587
REMARK  242  A    between atoms: _589  and  _591
REMARK  243  A    between atoms: _591  and  _592
REMARK  244  A    between atoms: _591  and  _594
REMARK  245  A    between atoms: _594  and  _595
REMARK  246  A    between atoms: _595  and  _596
REMARK  247  A    between atoms: _601  and  _603
REMARK  248  A    between atoms: _603  and  _604
REMARK  249  A    between atoms: _603  and  _606
REMARK  250  A    between atoms: _606  and  _607
REMARK  251  A    between atoms: _612  and  _613
REMARK  252  A    between atoms: _615  and  _617
REMARK  253  A    between atoms: _617  and  _618
REMARK  254  A    between atoms: _617  and  _620
REMARK  255  A    between atoms: _620  and  _621
REMARK  256  A    between atoms: _624  and  _626
REMARK  257  A    between atoms: _626  and  _627
REMARK  258  A    between atoms: _626  and  _629
REMARK  259  A    between atoms: _629  and  _630
REMARK  260  A    between atoms: _630  and  _631
REMARK  261  A    between atoms: _631  and  _632
REMARK  262  A    between atoms: _632  and  _633
REMARK  263  A    between atoms: _637  and  _639
REMARK  264  A    between atoms: _639  and  _640
REMARK  265  A    between atoms: _639  and  _642
REMARK  266  A    between atoms: _642  and  _643
REMARK  267  A    between atoms: _646  and  _648
REMARK  268  A    between atoms: _648  and  _649
REMARK  269  A    between atoms: _648  and  _651
REMARK  270  A    between atoms: _651  and  _652
REMARK  271  A    between atoms: _655  and  _657
REMARK  272  A    between atoms: _657  and  _658
REMARK  273  A    between atoms: _657  and  _660
REMARK  274  A    between atoms: _663  and  _665
REMARK  275  A    between atoms: _665  and  _666
REMARK  276  A    between atoms: _665  and  _668
REMARK  277  A    between atoms: _668  and  _669
REMARK                            x       y       z     vdW  Elec       q    Type
REMARK                         _______ _______ _______ _____ _____    ______ ____
ROOT
ATOM      1  CB  GLN A   1      20.775  27.412  37.966  0.00  0.00    +0.035 C 
ENDROOT
BRANCH   1   2
ATOM      2  CA  GLN A   1      21.188  27.607  39.431  0.00  0.00    +0.134 C 
BRANCH   2   3
ATOM      3  N   GLN A   1      20.504  28.761  40.024  0.00  0.00    -0.239 NA
ATOM      4  H   GLN A   1      19.862  29.329  39.435  0.00  0.00    +0.142 HD
ENDBRANCH   2   3
BRANCH   2   5
ATOM      5  C   GLN A   1      22.708  27.744  39.502  0.00  0.00    +0.224 C 
ATOM      6  O   GLN A   1      23.411  26.781  39.811  0.00  0.00    -0.287 OA
ENDBRANCH   2   5
ENDBRANCH   1   2
BRANCH   1   7
ATOM      7  CG  GLN A   1      19.326  26.976  37.741  0.00  0.00    +0.087 C 
BRANCH   7   8
ATOM      8  CD  GLN A   1      18.983  25.677  38.445  0.00  0.00    +0.219 C 
ATOM      9  NE2 GLN A   1      17.811  25.632  39.058  0.00  0.00    -0.329 N 
ATOM     10 HE21 GLN A   1      17.515  24.766  39.551  0.00  0.00    +0.145 HD
ATOM     11 HE22 GLN A   1      17.186  26.463  39.046  0.00  0.00    +0.145 HD
ATOM     12  OE1 GLN A   1      19.761  24.722  38.428  0.00  0.00    -0.275 OA
ENDBRANCH   7   8
ENDBRANCH   1   7
TORSDOF 5
REMARK  Name = ../refined-set-2016/1s19/1s19_pocket.pdb
REMARK  277 active torsions:
REMARK  status: ('A' for Active; 'I' for Inactive)
REMARK    1  A    between atoms: _1  and  _3
REMARK    2  A    between atoms: _3  and  _4
REMARK    3  A    between atoms: _3  and  _6
REMARK    4  A    between atoms: _6  and  _7
REMARK    5  A    between atoms: _10  and  _12
REMARK    6  A    between atoms: _12  and  _13
REMARK    7  A    between atoms: _12  and  _15
REMARK    8  A    between atoms: _15  and  _16
REMARK    9  A    between atoms: _21  and  _22
REMARK   10  A    between atoms: _24  and  _26
REMARK   11  A    between atoms: _26  and  _27
REMARK   12  A    between atoms: _26  and  _29
REMARK   13  A    between atoms: _29  and  _30
REMARK   14  A    between atoms: _33  and  _35
REMARK   15  A    between atoms: _35  and  _36
REMARK   16  A    between atoms: _35  and  _38
REMARK   17  A    between atoms: _38  and  _39
REMARK   18  A    between atoms: _44  and  _45
REMARK   19  A    between atoms: _47  and  _49
REMARK   20  A    between atoms: _49  and  _50
REMARK   21  A    between atoms: _49  and  _52
REMARK   22  A    between atoms: _52  and  _53
REMARK   23  A    between atoms: _59  and  _61
REMARK   24  A    between atoms: _61  and  _62
REMARK   25  A    between atoms: _61  and  _64
REMARK   26  A    between atoms: _64  and  _65
REMARK   27  A    between atoms: _71  and  _73
REMARK   28  A    between atoms: _73  and  _74
REMARK   29  A    between atoms: _73  and  _76
REMARK   30  A    between atoms: _76  and  _77
REMARK   31  A    between atoms: _77  and  _78
REMARK   32  A    between atoms: _78  and  _79
REMARK   33  A    between atoms: _88  and  _90
REMARK   34  A    between atoms: _90  and  _91
REMARK   35  A    between atoms: _90  and  _93
REMARK   36  A    between atoms: _93  and  _94
REMARK   37  A    between atoms: _94  and  _95
REMARK   38  A    between atoms: _97  and  _99
REMARK   39  A    between atoms: _99  and  _100
REMARK   40  A    between atoms: _99  and  _102
REMARK   41  A    between atoms: _102  and  _103
REMARK   42  A    between atoms: _107  and  _108
REMARK   43  A    between atoms: _113  and  _115
REMARK   44  A    between atoms: _115  and  _116
REMARK   45  A    between atoms: _115  and  _118
REMARK   46  A    between atoms: _118  and  _119
REMARK   47  A    between atoms: _124  and  _126
REMARK   48  A    between atoms: _126  and  _127
REMARK   49  A    between atoms: _126  and  _129
REMARK   50  A    between atoms: _129  and  _130
REMARK   51  A    between atoms: _133  and  _135
REMARK   52  A    between atoms: _135  and  _136
REMARK   53  A    between atoms: _139  and  _141
REMARK   54  A    between atoms: _141  and  _142
REMARK   55  A    between atoms: _141  and  _144
REMARK   56  A    between atoms: _144  and  _145
REMARK   57  A    between atoms: _148  and  _150
REMARK   58  A    between atoms: _150  and  _151
REMARK   59  A    between atoms: _150  and  _153
REMARK   60  A    between atoms: _153  and  _154
REMARK   61  A    between atoms: _157  and  _159
REMARK   62  A    between atoms: _159  and  _160
REMARK   63  A    between atoms: _159  and  _162
REMARK   64  A    between atoms: _165  and  _167
REMARK   65  A    between atoms: _167  and  _168
REMARK   66  A    between atoms: _167  and  _170
REMARK   67  A    between atoms: _170  and  _171
REMARK   68  A    between atoms: _173  and  _175
REMARK   69  A    between atoms: _175  and  _176
REMARK   70  A    between atoms: _175  and  _178
REMARK   71  A    between atoms: _178  and  _179
REMARK   72  A    between atoms: _184  and  _185
REMARK   73  A    between atoms: _187  and  _189
REMARK   74  A    between atoms: _189  and  _190
REMARK   75  A    between atoms: _189  and  _192
REMARK   76  A    between atoms: _192  and  _193
REMARK   77  A    between atoms: _195  and  _197
REMARK   78  A    between atoms: _197  and  _198
REMARK   79  A    between atoms: _197  and  _200
REMARK   80  A    between atoms: _200  and  _201
REMARK   81  A    between atoms: _204  and  _206
REMARK   82  A    between atoms: _206  and  _207
REMARK   83  A    between atoms: _206  and  _209
REMARK   84  A    between atoms: _209  and  _210
REMARK   85  A    between atoms: _210  and  _211
REMARK   86  A    between atoms: _211  and  _212
REMARK   87  A    between atoms: _212  and  _213
REMARK   88  A    between atoms: _217  and  _219
REMARK   89  A    between atoms: _219  and  _220
REMARK   90  A    between atoms: _219  and  _222
REMARK   91  A    between atoms: _225  and  _227
REMARK   92  A    between atoms: _227  and  _228
REMARK   93  A    between atoms: _231  and  _233
REMARK   94  A    between atoms: _233  and  _234
REMARK   95  A    between atoms: _233  and  _236
REMARK   96  A    between atoms: _236  and  _237
REMARK   97  A    between atoms: _240  and  _242
REMARK   98  A    between atoms: _242  and  _243
REMARK   99  A    between atoms: _242  and  _245
REMARK  100  A    between atoms: _245  and  _246
REMARK  101  A    between atoms: _246  and  _247
REMARK  102  A    between atoms: _250  and  _252
REMARK  103  A    between atoms: _252  and  _253
REMARK  104  A    between atoms: _252  and  _255
REMARK  105  A    between atoms: _258  and  _260
REMARK  106  A    between atoms: _260  and  _261
REMARK  107  A    between atoms: _260  and  _263
REMARK  108  A    between atoms: _263  and  _264
REMARK  109  A    between atoms: _267  and  _269
REMARK  110  A    between atoms: _269  and  _270
REMARK  111  A    between atoms: _269  and  _272
REMARK  112  A    between atoms: _272  and  _273
REMARK  113  A    between atoms: _273  and  _274
REMARK  114  A    between atoms: _276  and  _278
REMARK  115  A    between atoms: _278  and  _279
REMARK  116  A    between atoms: _278  and  _281
REMARK  117  A    between atoms: _281  and  _282
REMARK  118  A    between atoms: _285  and  _287
REMARK  119  A    between atoms: _287  and  _288
REMARK  120  A    between atoms: _287  and  _290
REMARK  121  A    between atoms: _290  and  _291
REMARK  122  A    between atoms: _291  and  _292
REMARK  123  A    between atoms: _292  and  _293
REMARK  124  A    between atoms: _302  and  _304
REMARK  125  A    between atoms: _304  and  _305
REMARK  126  A    between atoms: _304  and  _307
REMARK  127  A    between atoms: _307  and  _308
REMARK  128  A    between atoms: _310  and  _312
REMARK  129  A    between atoms: _312  and  _313
REMARK  130  A    between atoms: _312  and  _315
REMARK  131  A    between atoms: _315  and  _316
REMARK  132  A    between atoms: _321  and  _323
REMARK  133  A    between atoms: _323  and  _324
REMARK  134  A    between atoms: _323  and  _326
REMARK  135  A    between atoms: _326  and  _327
REMARK  136  A    between atoms: _327  and  _328
REMARK  137  A    between atoms: _331  and  _333
REMARK  138  A    between atoms: _333  and  _334
REMARK  139  A    between atoms: _333  and  _336
REMARK  140  A    between atoms: _336  and  _337
REMARK  141  A    between atoms: _339  and  _341
REMARK  142  A    between atoms: _341  and  _342
REMARK  143  A    between atoms: _341  and  _344
REMARK  144  A    between atoms: _344  and  _345
REMARK  145  A    between atoms: _351  and  _353
REMARK  146  A    between atoms: _353  and  _354
REMARK  147  A    between atoms: _353  and  _356
REMARK  148  A    between atoms: _356  and  _357
REMARK  149  A    between atoms: _359  and  _361
REMARK  150  A    between atoms: _361  and  _362
REMARK  151  A    between atoms: _361  and  _364
REMARK  152  A    between atoms: _364  and  _365
REMARK  153  A    between atoms: _375  and  _377
REMARK  154  A    between atoms: _377  and  _378
REMARK  155  A    between atoms: _377  and  _380
REMARK  156  A    between atoms: _380  and  _381
REMARK  157  A    between atoms: _384  and  _386
REMARK  158  A    between atoms: _386  and  _387
REMARK  159  A    between atoms: _386  and  _389
REMARK  160  A    between atoms: _391  and  _393
REMARK  161  A    between atoms: _393  and  _394
REMARK  162  A    between atoms: _393  and  _396
REMARK  163  A    between atoms: _396  and  _397
REMARK  164  A    between atoms: _402  and  _403
REMARK  165  A    between atoms: _405  and  _407
REMARK  166  A    between atoms: _407  and  _408
REMARK  167  A    between atoms: _407  and  _410
REMARK  168  A    between atoms: _410  and  _411
REMARK  169  A    between atoms: _411  and  _412
REMARK  170  A    between atoms: _412  and  _413
REMARK  171  A    between atoms: _413  and  _414
REMARK  172  A    between atoms: _418  and  _420
REMARK  173  A    between atoms: _420  and  _421
REMARK  174  A    between atoms: _420  and  _423
REMARK  175  A    between atoms: _423  and  _424
REMARK  176  A    between atoms: _429  and  _430
REMARK  177  A    between atoms: _432  and  _434
REMARK  178  A    between atoms: _434  and  _435
REMARK  179  A    between atoms: _434  and  _437
REMARK  180  A    between atoms: _437  and  _438
REMARK  181  A    between atoms: _438  and  _439
REMARK  182  A    between atoms: _439  and  _440
REMARK  183  A    between atoms: _449  and  _451
REMARK  184  A    between atoms: _451  and  _452
REMARK  185  A    between atoms: _451  and  _454
REMARK  186  A    between atoms: _457  and  _459
REMARK  187  A    between atoms: _459  and  _460
REMARK  188  A    between atoms: _459  and  _462
REMARK  189  A    between atoms: _462  and  _463
REMARK  190  A    between atoms: _466  and  _468
REMARK  191  A    between atoms: _468  and  _469
REMARK  192  A    between atoms: _468  and  _471
REMARK  193  A    between atoms: _474  and  _476
REMARK  194  A    between atoms: _476  and  _477
REMARK  195  A    between atoms: _476  and  _479
REMARK  196  A    between atoms: _479  and  _480
REMARK  197  A    between atoms: _483  and  _485
REMARK  198  A    between atoms: _485  and  _486
REMARK  199  A    between atoms: _489  and  _491
REMARK  200  A    between atoms: _491  and  _492
REMARK  201  A    between atoms: _494  and  _496
REMARK  202  A    between atoms: _496  and  _497
REMARK  203  A    between atoms: _496  and  _499
REMARK  204  A    between atoms: _499  and  _500
REMARK  205  A    between atoms: _505  and  _507
REMARK  206  A    between atoms: _507  and  _508
REMARK  207  A    between atoms: _507  and  _510
REMARK  208  A    between atoms: _510  and  _511
REMARK  209  A    between atoms: _513  and  _515
REMARK  210  A    between atoms: _515  and  _516
REMARK  211  A    between atoms: _515  and  _518
REMARK  212  A    between atoms: _518  and  _519
REMARK  213  A    between atoms: _522  and  _524
REMARK  214  A    between atoms: _524  and  _525
REMARK  215  A    between atoms: _524  and  _527
REMARK  216  A    between atoms: _527  and  _528
REMARK  217  A    between atoms: _531  and  _533
REMARK  218  A    between atoms: _533  and  _534
REMARK  219  A    between atoms: _533  and  _536
REMARK  220  A    between atoms: _536  and  _537
REMARK  221  A    between atoms: _540  and  _542
REMARK  222  A    between atoms: _542  and  _543
REMARK  223  A    between atoms: _542  and  _545
REMARK  224  A    between atoms: _545  and  _546
REMARK  225  A    between atoms: _549  and  _551
REMARK  226  A    between atoms: _551  and  _552
REMARK  227  A    between atoms: _551  and  _554
REMARK  228  A    between atoms: _554  and  _555
REMARK  229  A    between atoms: _555  and  _556
REMARK  230  A    between atoms: _561  and  _563
REMARK  231  A    between atoms: _563  and  _564
REMARK  232  A    between atoms: _563  and  _566
REMARK  233  A    between atoms: _566  and  _567
REMARK  234  A    between atoms: _570  and  _572
REMARK  235  A    between atoms: _572  and  _573
REMARK  236  A    between atoms: _572  and  _575
REMARK  237  A    between atoms: _575  and  _576
REMARK  238  A    between atoms: _581  and  _583
REMARK  239  A    between atoms: _583  and  _584
REMARK  240  A    between atoms: _583  and  _586
REMARK  241  A    between atoms: _586  and  _587
REMARK  242  A    between atoms: _589  and  _591
REMARK  243  A    between atoms: _591  and  _592
REMARK  244  A    between atoms: _591  and  _594
REMARK  245  A    between atoms: _594  and  _595
REMARK  246  A    between atoms: _595  and  _596
REMARK  247  A    between atoms: _601  and  _603
REMARK  248  A    between atoms: _603  and  _604
REMARK  249  A    between atoms: _603  and  _606
REMARK  250  A    between atoms: _606  and  _607
REMARK  251  A    between atoms: _612  and  _613
REMARK  252  A    between atoms: _615  and  _617
REMARK  253  A    between atoms: _617  and  _618
REMARK  254  A    between atoms: _617  and  _620
REMARK  255  A    between atoms: _620  and  _621
REMARK  256  A    between atoms: _624  and  _626
REMARK  257  A    between atoms: _626  and  _627
REMARK  258  A    between atoms: _626  and  _629
REMARK  259  A    between atoms: _629  and  _630
REMARK  260  A    between atoms: _630  and  _631
REMARK  261  A    between atoms: _631  and  _632
REMARK  262  A    between atoms: _632  and  _633
REMARK  263  A    between atoms: _637  and  _639
REMARK  264  A    between atoms: _639  and  _640
REMARK  265  A    between atoms: _639  and  _642
REMARK  266  A    between atoms: _642  and  _643
REMARK  267  A    between atoms: _646  and  _648
REMARK  268  A    between atoms: _648  and  _649
REMARK  269  A    between atoms: _648  and  _651
REMARK  270  A    between atoms: _651  and  _652
REMARK  271  A    between atoms: _655  and  _657
REMARK  272  A    between atoms: _657  and  _658
REMARK  273  A    between atoms: _657  and  _660
REMARK  274  A    between atoms: _663  and  _665
REMARK  275  A    between atoms: _665  and  _666
REMARK  276  A    between atoms: _665  and  _668
REMARK  277  A    between atoms: _668  and  _669
REMARK                            x       y       z     vdW  Elec       q    Type
REMARK                         _______ _______ _______ _____ _____    ______ ____
ROOT
ATOM      1  CA  LEU A   1      11.046  31.385  43.583  0.00  0.00    +0.133 C 
ENDROOT
BRANCH   1   2
ATOM      2  N   LEU A   1      11.278  31.775  44.966  0.00  0.00    -0.239 NA
ATOM      3  H   LEU A   1      12.066  31.346  45.492  0.00  0.00    +0.142 HD
ENDBRANCH   1   2
BRANCH   1   4
ATOM      4  C   LEU A   1       9.678  30.725  43.475  0.00  0.00    +0.224 C 
ATOM      5  O   LEU A   1       8.953  30.941  42.504  0.00  0.00    -0.287 OA
ENDBRANCH   1   4
BRANCH   1   6
ATOM      6  CB  LEU A   1      12.141  30.417  43.108  0.00  0.00    +0.025 C 
BRANCH   6   7
ATOM      7  CG  LEU A   1      13.540  31.022  42.946  0.00  0.00    +0.002 C 
ATOM      8  CD2 LEU A   1      14.546  29.935  42.598  0.00  0.00    +0.000 C 
ATOM      9  CD1 LEU A   1      13.500  32.072  41.854  0.00  0.00    +0.000 C 
ENDBRANCH   6   7
ENDBRANCH   1   6
TORSDOF 4
REMARK  Name = ../refined-set-2016/1s19/1s19_pocket.pdb
REMARK  277 active torsions:
REMARK  status: ('A' for Active; 'I' for Inactive)
REMARK    1  A    between atoms: _1  and  _3
REMARK    2  A    between atoms: _3  and  _4
REMARK    3  A    between atoms: _3  and  _6
REMARK    4  A    between atoms: _6  and  _7
REMARK    5  A    between atoms: _10  and  _12
REMARK    6  A    between atoms: _12  and  _13
REMARK    7  A    between atoms: _12  and  _15
REMARK    8  A    between atoms: _15  and  _16
REMARK    9  A    between atoms: _21  and  _22
REMARK   10  A    between atoms: _24  and  _26
REMARK   11  A    between atoms: _26  and  _27
REMARK   12  A    between atoms: _26  and  _29
REMARK   13  A    between atoms: _29  and  _30
REMARK   14  A    between atoms: _33  and  _35
REMARK   15  A    between atoms: _35  and  _36
REMARK   16  A    between atoms: _35  and  _38
REMARK   17  A    between atoms: _38  and  _39
REMARK   18  A    between atoms: _44  and  _45
REMARK   19  A    between atoms: _47  and  _49
REMARK   20  A    between atoms: _49  and  _50
REMARK   21  A    between atoms: _49  and  _52
REMARK   22  A    between atoms: _52  and  _53
REMARK   23  A    between atoms: _59  and  _61
REMARK   24  A    between atoms: _61  and  _62
REMARK   25  A    between atoms: _61  and  _64
REMARK   26  A    between atoms: _64  and  _65
REMARK   27  A    between atoms: _71  and  _73
REMARK   28  A    between atoms: _73  and  _74
REMARK   29  A    between atoms: _73  and  _76
REMARK   30  A    between atoms: _76  and  _77
REMARK   31  A    between atoms: _77  and  _78
REMARK   32  A    between atoms: _78  and  _79
REMARK   33  A    between atoms: _88  and  _90
REMARK   34  A    between atoms: _90  and  _91
REMARK   35  A    between atoms: _90  and  _93
REMARK   36  A    between atoms: _93  and  _94
REMARK   37  A    between atoms: _94  and  _95
REMARK   38  A    between atoms: _97  and  _99
REMARK   39  A    between atoms: _99  and  _100
REMARK   40  A    between atoms: _99  and  _102
REMARK   41  A    between atoms: _102  and  _103
REMARK   42  A    between atoms: _107  and  _108
REMARK   43  A    between atoms: _113  and  _115
REMARK   44  A    between atoms: _115  and  _116
REMARK   45  A    between atoms: _115  and  _118
REMARK   46  A    between atoms: _118  and  _119
REMARK   47  A    between atoms: _124  and  _126
REMARK   48  A    between atoms: _126  and  _127
REMARK   49  A    between atoms: _126  and  _129
REMARK   50  A    between atoms: _129  and  _130
REMARK   51  A    between atoms: _133  and  _135
REMARK   52  A    between atoms: _135  and  _136
REMARK   53  A    between atoms: _139  and  _141
REMARK   54  A    between atoms: _141  and  _142
REMARK   55  A    between atoms: _141  and  _144
REMARK   56  A    between atoms: _144  and  _145
REMARK   57  A    between atoms: _148  and  _150
REMARK   58  A    between atoms: _150  and  _151
REMARK   59  A    between atoms: _150  and  _153
REMARK   60  A    between atoms: _153  and  _154
REMARK   61  A    between atoms: _157  and  _159
REMARK   62  A    between atoms: _159  and  _160
REMARK   63  A    between atoms: _159  and  _162
REMARK   64  A    between atoms: _165  and  _167
REMARK   65  A    between atoms: _167  and  _168
REMARK   66  A    between atoms: _167  and  _170
REMARK   67  A    between atoms: _170  and  _171
REMARK   68  A    between atoms: _173  and  _175
REMARK   69  A    between atoms: _175  and  _176
REMARK   70  A    between atoms: _175  and  _178
REMARK   71  A    between atoms: _178  and  _179
REMARK   72  A    between atoms: _184  and  _185
REMARK   73  A    between atoms: _187  and  _189
REMARK   74  A    between atoms: _189  and  _190
REMARK   75  A    between atoms: _189  and  _192
REMARK   76  A    between atoms: _192  and  _193
REMARK   77  A    between atoms: _195  and  _197
REMARK   78  A    between atoms: _197  and  _198
REMARK   79  A    between atoms: _197  and  _200
REMARK   80  A    between atoms: _200  and  _201
REMARK   81  A    between atoms: _204  and  _206
REMARK   82  A    between atoms: _206  and  _207
REMARK   83  A    between atoms: _206  and  _209
REMARK   84  A    between atoms: _209  and  _210
REMARK   85  A    between atoms: _210  and  _211
REMARK   86  A    between atoms: _211  and  _212
REMARK   87  A    between atoms: _212  and  _213
REMARK   88  A    between atoms: _217  and  _219
REMARK   89  A    between atoms: _219  and  _220
REMARK   90  A    between atoms: _219  and  _222
REMARK   91  A    between atoms: _225  and  _227
REMARK   92  A    between atoms: _227  and  _228
REMARK   93  A    between atoms: _231  and  _233
REMARK   94  A    between atoms: _233  and  _234
REMARK   95  A    between atoms: _233  and  _236
REMARK   96  A    between atoms: _236  and  _237
REMARK   97  A    between atoms: _240  and  _242
REMARK   98  A    between atoms: _242  and  _243
REMARK   99  A    between atoms: _242  and  _245
REMARK  100  A    between atoms: _245  and  _246
REMARK  101  A    between atoms: _246  and  _247
REMARK  102  A    between atoms: _250  and  _252
REMARK  103  A    between atoms: _252  and  _253
REMARK  104  A    between atoms: _252  and  _255
REMARK  105  A    between atoms: _258  and  _260
REMARK  106  A    between atoms: _260  and  _261
REMARK  107  A    between atoms: _260  and  _263
REMARK  108  A    between atoms: _263  and  _264
REMARK  109  A    between atoms: _267  and  _269
REMARK  110  A    between atoms: _269  and  _270
REMARK  111  A    between atoms: _269  and  _272
REMARK  112  A    between atoms: _272  and  _273
REMARK  113  A    between atoms: _273  and  _274
REMARK  114  A    between atoms: _276  and  _278
REMARK  115  A    between atoms: _278  and  _279
REMARK  116  A    between atoms: _278  and  _281
REMARK  117  A    between atoms: _281  and  _282
REMARK  118  A    between atoms: _285  and  _287
REMARK  119  A    between atoms: _287  and  _288
REMARK  120  A    between atoms: _287  and  _290
REMARK  121  A    between atoms: _290  and  _291
REMARK  122  A    between atoms: _291  and  _292
REMARK  123  A    between atoms: _292  and  _293
REMARK  124  A    between atoms: _302  and  _304
REMARK  125  A    between atoms: _304  and  _305
REMARK  126  A    between atoms: _304  and  _307
REMARK  127  A    between atoms: _307  and  _308
REMARK  128  A    between atoms: _310  and  _312
REMARK  129  A    between atoms: _312  and  _313
REMARK  130  A    between atoms: _312  and  _315
REMARK  131  A    between atoms: _315  and  _316
REMARK  132  A    between atoms: _321  and  _323
REMARK  133  A    between atoms: _323  and  _324
REMARK  134  A    between atoms: _323  and  _326
REMARK  135  A    between atoms: _326  and  _327
REMARK  136  A    between atoms: _327  and  _328
REMARK  137  A    between atoms: _331  and  _333
REMARK  138  A    between atoms: _333  and  _334
REMARK  139  A    between atoms: _333  and  _336
REMARK  140  A    between atoms: _336  and  _337
REMARK  141  A    between atoms: _339  and  _341
REMARK  142  A    between atoms: _341  and  _342
REMARK  143  A    between atoms: _341  and  _344
REMARK  144  A    between atoms: _344  and  _345
REMARK  145  A    between atoms: _351  and  _353
REMARK  146  A    between atoms: _353  and  _354
REMARK  147  A    between atoms: _353  and  _356
REMARK  148  A    between atoms: _356  and  _357
REMARK  149  A    between atoms: _359  and  _361
REMARK  150  A    between atoms: _361  and  _362
REMARK  151  A    between atoms: _361  and  _364
REMARK  152  A    between atoms: _364  and  _365
REMARK  153  A    between atoms: _375  and  _377
REMARK  154  A    between atoms: _377  and  _378
REMARK  155  A    between atoms: _377  and  _380
REMARK  156  A    between atoms: _380  and  _381
REMARK  157  A    between atoms: _384  and  _386
REMARK  158  A    between atoms: _386  and  _387
REMARK  159  A    between atoms: _386  and  _389
REMARK  160  A    between atoms: _391  and  _393
REMARK  161  A    between atoms: _393  and  _394
REMARK  162  A    between atoms: _393  and  _396
REMARK  163  A    between atoms: _396  and  _397
REMARK  164  A    between atoms: _402  and  _403
REMARK  165  A    between atoms: _405  and  _407
REMARK  166  A    between atoms: _407  and  _408
REMARK  167  A    between atoms: _407  and  _410
REMARK  168  A    between atoms: _410  and  _411
REMARK  169  A    between atoms: _411  and  _412
REMARK  170  A    between atoms: _412  and  _413
REMARK  171  A    between atoms: _413  and  _414
REMARK  172  A    between atoms: _418  and  _420
REMARK  173  A    between atoms: _420  and  _421
REMARK  174  A    between atoms: _420  and  _423
REMARK  175  A    between atoms: _423  and  _424
REMARK  176  A    between atoms: _429  and  _430
REMARK  177  A    between atoms: _432  and  _434
REMARK  178  A    between atoms: _434  and  _435
REMARK  179  A    between atoms: _434  and  _437
REMARK  180  A    between atoms: _437  and  _438
REMARK  181  A    between atoms: _438  and  _439
REMARK  182  A    between atoms: _439  and  _440
REMARK  183  A    between atoms: _449  and  _451
REMARK  184  A    between atoms: _451  and  _452
REMARK  185  A    between atoms: _451  and  _454
REMARK  186  A    between atoms: _457  and  _459
REMARK  187  A    between atoms: _459  and  _460
REMARK  188  A    between atoms: _459  and  _462
REMARK  189  A    between atoms: _462  and  _463
REMARK  190  A    between atoms: _466  and  _468
REMARK  191  A    between atoms: _468  and  _469
REMARK  192  A    between atoms: _468  and  _471
REMARK  193  A    between atoms: _474  and  _476
REMARK  194  A    between atoms: _476  and  _477
REMARK  195  A    between atoms: _476  and  _479
REMARK  196  A    between atoms: _479  and  _480
REMARK  197  A    between atoms: _483  and  _485
REMARK  198  A    between atoms: _485  and  _486
REMARK  199  A    between atoms: _489  and  _491
REMARK  200  A    between atoms: _491  and  _492
REMARK  201  A    between atoms: _494  and  _496
REMARK  202  A    between atoms: _496  and  _497
REMARK  203  A    between atoms: _496  and  _499
REMARK  204  A    between atoms: _499  and  _500
REMARK  205  A    between atoms: _505  and  _507
REMARK  206  A    between atoms: _507  and  _508
REMARK  207  A    between atoms: _507  and  _510
REMARK  208  A    between atoms: _510  and  _511
REMARK  209  A    between atoms: _513  and  _515
REMARK  210  A    between atoms: _515  and  _516
REMARK  211  A    between atoms: _515  and  _518
REMARK  212  A    between atoms: _518  and  _519
REMARK  213  A    between atoms: _522  and  _524
REMARK  214  A    between atoms: _524  and  _525
REMARK  215  A    between atoms: _524  and  _527
REMARK  216  A    between atoms: _527  and  _528
REMARK  217  A    between atoms: _531  and  _533
REMARK  218  A    between atoms: _533  and  _534
REMARK  219  A    between atoms: _533  and  _536
REMARK  220  A    between atoms: _536  and  _537
REMARK  221  A    between atoms: _540  and  _542
REMARK  222  A    between atoms: _542  and  _543
REMARK  223  A    between atoms: _542  and  _545
REMARK  224  A    between atoms: _545  and  _546
REMARK  225  A    between atoms: _549  and  _551
REMARK  226  A    between atoms: _551  and  _552
REMARK  227  A    between atoms: _551  and  _554
REMARK  228  A    between atoms: _554  and  _555
REMARK  229  A    between atoms: _555  and  _556
REMARK  230  A    between atoms: _561  and  _563
REMARK  231  A    between atoms: _563  and  _564
REMARK  232  A    between atoms: _563  and  _566
REMARK  233  A    between atoms: _566  and  _567
REMARK  234  A    between atoms: _570  and  _572
REMARK  235  A    between atoms: _572  and  _573
REMARK  236  A    between atoms: _572  and  _575
REMARK  237  A    between atoms: _575  and  _576
REMARK  238  A    between atoms: _581  and  _583
REMARK  239  A    between atoms: _583  and  _584
REMARK  240  A    between atoms: _583  and  _586
REMARK  241  A    between atoms: _586  and  _587
REMARK  242  A    between atoms: _589  and  _591
REMARK  243  A    between atoms: _591  and  _592
REMARK  244  A    between atoms: _591  and  _594
REMARK  245  A    between atoms: _594  and  _595
REMARK  246  A    between atoms: _595  and  _596
REMARK  247  A    between atoms: _601  and  _603
REMARK  248  A    between atoms: _603  and  _604
REMARK  249  A    between atoms: _603  and  _606
REMARK  250  A    between atoms: _606  and  _607
REMARK  251  A    between atoms: _612  and  _613
REMARK  252  A    between atoms: _615  and  _617
REMARK  253  A    between atoms: _617  and  _618
REMARK  254  A    between atoms: _617  and  _620
REMARK  255  A    between atoms: _620  and  _621
REMARK  256  A    between atoms: _624  and  _626
REMARK  257  A    between atoms: _626  and  _627
REMARK  258  A    between atoms: _626  and  _629
REMARK  259  A    between atoms: _629  and  _630
REMARK  260  A    between atoms: _630  and  _631
REMARK  261  A    between atoms: _631  and  _632
REMARK  262  A    between atoms: _632  and  _633
REMARK  263  A    between atoms: _637  and  _639
REMARK  264  A    between atoms: _639  and  _640
REMARK  265  A    between atoms: _639  and  _642
REMARK  266  A    between atoms: _642  and  _643
REMARK  267  A    between atoms: _646  and  _648
REMARK  268  A    between atoms: _648  and  _649
REMARK  269  A    between atoms: _648  and  _651
REMARK  270  A    between atoms: _651  and  _652
REMARK  271  A    between atoms: _655  and  _657
REMARK  272  A    between atoms: _657  and  _658
REMARK  273  A    between atoms: _657  and  _660
REMARK  274  A    between atoms: _663  and  _665
REMARK  275  A    between atoms: _665  and  _666
REMARK  276  A    between atoms: _665  and  _668
REMARK  277  A    between atoms: _668  and  _669
REMARK                            x       y       z     vdW  Elec       q    Type
REMARK                         _______ _______ _______ _____ _____    ______ ____
ROOT
ATOM      1  C   HIS A   1       4.644  30.922  40.141  0.00  0.00    +0.239 C 
ATOM      2  N   SER A   2       4.142  30.880  41.371  0.00  0.00    -0.296 N 
ATOM      3  H   SER A   2       4.795  30.910  42.180  0.00  0.00    +0.150 HD
ATOM      4  O   HIS A   1       3.948  30.895  39.128  0.00  0.00    -0.274 OA
ENDROOT
BRANCH   1   5
ATOM      5  CA  HIS A   1       6.162  31.013  40.039  0.00  0.00    +0.151 C 
BRANCH   5   6
ATOM      6  N   HIS A   1       6.700  31.939  41.034  0.00  0.00    -0.238 NA
ATOM      7  H   HIS A   1       7.363  31.598  41.759  0.00  0.00    +0.142 HD
ENDBRANCH   5   6
BRANCH   5   8
ATOM      8  CB  HIS A   1       6.767  29.617  40.192  0.00  0.00    +0.074 C 
BRANCH   8   9
ATOM      9  CG  HIS A   1       6.139  28.593  39.297  0.00  0.00    +0.082 A 
ATOM     10  ND1 HIS A   1       5.059  27.826  39.685  0.00  0.00    -0.227 NA
ATOM     11  CE1 HIS A   1       4.672  27.070  38.673  0.00  0.00    +0.199 A 
ATOM     12  NE2 HIS A   1       5.463  27.316  37.644  0.00  0.00    -0.221 NA
ATOM     13  CD2 HIS A   1       6.390  28.261  38.008  0.00  0.00    +0.115 A 
ENDBRANCH   8   9
ENDBRANCH   5   8
ENDBRANCH   1   5
BRANCH   2  14
ATOM     14  CA  SER A   2       2.709  30.793  41.627  0.00  0.00    +0.166 C 
BRANCH  14  15
ATOM     15  C   SER A   2       1.992  32.020  41.061  0.00  0.00    +0.229 C 
ATOM     16  O   SER A   2       0.930  31.905  40.454  0.00  0.00    -0.286 OA
ENDBRANCH  14  15
BRANCH  14  17
ATOM     17  CB  SER A   2       2.462  30.692  43.138  0.00  0.00    +0.165 C 
BRANCH  17  18
ATOM     18  OG  SER A   2       1.085  30.530  43.435  0.00  0.00    -0.380 OA
ATOM     19  H   SER A   2       0.580  31.307  43.088  0.00  0.00    +0.211 HD
ENDBRANCH  17  18
ENDBRANCH  14  17
ENDBRANCH   2  14
TORSDOF 8
REMARK  Name = ../refined-set-2016/1s19/1s19_pocket.pdb
REMARK  277 active torsions:
REMARK  status: ('A' for Active; 'I' for Inactive)
REMARK    1  A    between atoms: _1  and  _3
REMARK    2  A    between atoms: _3  and  _4
REMARK    3  A    between atoms: _3  and  _6
REMARK    4  A    between atoms: _6  and  _7
REMARK    5  A    between atoms: _10  and  _12
REMARK    6  A    between atoms: _12  and  _13
REMARK    7  A    between atoms: _12  and  _15
REMARK    8  A    between atoms: _15  and  _16
REMARK    9  A    between atoms: _21  and  _22
REMARK   10  A    between atoms: _24  and  _26
REMARK   11  A    between atoms: _26  and  _27
REMARK   12  A    between atoms: _26  and  _29
REMARK   13  A    between atoms: _29  and  _30
REMARK   14  A    between atoms: _33  and  _35
REMARK   15  A    between atoms: _35  and  _36
REMARK   16  A    between atoms: _35  and  _38
REMARK   17  A    between atoms: _38  and  _39
REMARK   18  A    between atoms: _44  and  _45
REMARK   19  A    between atoms: _47  and  _49
REMARK   20  A    between atoms: _49  and  _50
REMARK   21  A    between atoms: _49  and  _52
REMARK   22  A    between atoms: _52  and  _53
REMARK   23  A    between atoms: _59  and  _61
REMARK   24  A    between atoms: _61  and  _62
REMARK   25  A    between atoms: _61  and  _64
REMARK   26  A    between atoms: _64  and  _65
REMARK   27  A    between atoms: _71  and  _73
REMARK   28  A    between atoms: _73  and  _74
REMARK   29  A    between atoms: _73  and  _76
REMARK   30  A    between atoms: _76  and  _77
REMARK   31  A    between atoms: _77  and  _78
REMARK   32  A    between atoms: _78  and  _79
REMARK   33  A    between atoms: _88  and  _90
REMARK   34  A    between atoms: _90  and  _91
REMARK   35  A    between atoms: _90  and  _93
REMARK   36  A    between atoms: _93  and  _94
REMARK   37  A    between atoms: _94  and  _95
REMARK   38  A    between atoms: _97  and  _99
REMARK   39  A    between atoms: _99  and  _100
REMARK   40  A    between atoms: _99  and  _102
REMARK   41  A    between atoms: _102  and  _103
REMARK   42  A    between atoms: _107  and  _108
REMARK   43  A    between atoms: _113  and  _115
REMARK   44  A    between atoms: _115  and  _116
REMARK   45  A    between atoms: _115  and  _118
REMARK   46  A    between atoms: _118  and  _119
REMARK   47  A    between atoms: _124  and  _126
REMARK   48  A    between atoms: _126  and  _127
REMARK   49  A    between atoms: _126  and  _129
REMARK   50  A    between atoms: _129  and  _130
REMARK   51  A    between atoms: _133  and  _135
REMARK   52  A    between atoms: _135  and  _136
REMARK   53  A    between atoms: _139  and  _141
REMARK   54  A    between atoms: _141  and  _142
REMARK   55  A    between atoms: _141  and  _144
REMARK   56  A    between atoms: _144  and  _145
REMARK   57  A    between atoms: _148  and  _150
REMARK   58  A    between atoms: _150  and  _151
REMARK   59  A    between atoms: _150  and  _153
REMARK   60  A    between atoms: _153  and  _154
REMARK   61  A    between atoms: _157  and  _159
REMARK   62  A    between atoms: _159  and  _160
REMARK   63  A    between atoms: _159  and  _162
REMARK   64  A    between atoms: _165  and  _167
REMARK   65  A    between atoms: _167  and  _168
REMARK   66  A    between atoms: _167  and  _170
REMARK   67  A    between atoms: _170  and  _171
REMARK   68  A    between atoms: _173  and  _175
REMARK   69  A    between atoms: _175  and  _176
REMARK   70  A    between atoms: _175  and  _178
REMARK   71  A    between atoms: _178  and  _179
REMARK   72  A    between atoms: _184  and  _185
REMARK   73  A    between atoms: _187  and  _189
REMARK   74  A    between atoms: _189  and  _190
REMARK   75  A    between atoms: _189  and  _192
REMARK   76  A    between atoms: _192  and  _193
REMARK   77  A    between atoms: _195  and  _197
REMARK   78  A    between atoms: _197  and  _198
REMARK   79  A    between atoms: _197  and  _200
REMARK   80  A    between atoms: _200  and  _201
REMARK   81  A    between atoms: _204  and  _206
REMARK   82  A    between atoms: _206  and  _207
REMARK   83  A    between atoms: _206  and  _209
REMARK   84  A    between atoms: _209  and  _210
REMARK   85  A    between atoms: _210  and  _211
REMARK   86  A    between atoms: _211  and  _212
REMARK   87  A    between atoms: _212  and  _213
REMARK   88  A    between atoms: _217  and  _219
REMARK   89  A    between atoms: _219  and  _220
REMARK   90  A    between atoms: _219  and  _222
REMARK   91  A    between atoms: _225  and  _227
REMARK   92  A    between atoms: _227  and  _228
REMARK   93  A    between atoms: _231  and  _233
REMARK   94  A    between atoms: _233  and  _234
REMARK   95  A    between atoms: _233  and  _236
REMARK   96  A    between atoms: _236  and  _237
REMARK   97  A    between atoms: _240  and  _242
REMARK   98  A    between atoms: _242  and  _243
REMARK   99  A    between atoms: _242  and  _245
REMARK  100  A    between atoms: _245  and  _246
REMARK  101  A    between atoms: _246  and  _247
REMARK  102  A    between atoms: _250  and  _252
REMARK  103  A    between atoms: _252  and  _253
REMARK  104  A    between atoms: _252  and  _255
REMARK  105  A    between atoms: _258  and  _260
REMARK  106  A    between atoms: _260  and  _261
REMARK  107  A    between atoms: _260  and  _263
REMARK  108  A    between atoms: _263  and  _264
REMARK  109  A    between atoms: _267  and  _269
REMARK  110  A    between atoms: _269  and  _270
REMARK  111  A    between atoms: _269  and  _272
REMARK  112  A    between atoms: _272  and  _273
REMARK  113  A    between atoms: _273  and  _274
REMARK  114  A    between atoms: _276  and  _278
REMARK  115  A    between atoms: _278  and  _279
REMARK  116  A    between atoms: _278  and  _281
REMARK  117  A    between atoms: _281  and  _282
REMARK  118  A    between atoms: _285  and  _287
REMARK  119  A    between atoms: _287  and  _288
REMARK  120  A    between atoms: _287  and  _290
REMARK  121  A    between atoms: _290  and  _291
REMARK  122  A    between atoms: _291  and  _292
REMARK  123  A    between atoms: _292  and  _293
REMARK  124  A    between atoms: _302  and  _304
REMARK  125  A    between atoms: _304  and  _305
REMARK  126  A    between atoms: _304  and  _307
REMARK  127  A    between atoms: _307  and  _308
REMARK  128  A    between atoms: _310  and  _312
REMARK  129  A    between atoms: _312  and  _313
REMARK  130  A    between atoms: _312  and  _315
REMARK  131  A    between atoms: _315  and  _316
REMARK  132  A    between atoms: _321  and  _323
REMARK  133  A    between atoms: _323  and  _324
REMARK  134  A    between atoms: _323  and  _326
REMARK  135  A    between atoms: _326  and  _327
REMARK  136  A    between atoms: _327  and  _328
REMARK  137  A    between atoms: _331  and  _333
REMARK  138  A    between atoms: _333  and  _334
REMARK  139  A    between atoms: _333  and  _336
REMARK  140  A    between atoms: _336  and  _337
REMARK  141  A    between atoms: _339  and  _341
REMARK  142  A    between atoms: _341  and  _342
REMARK  143  A    between atoms: _341  and  _344
REMARK  144  A    between atoms: _344  and  _345
REMARK  145  A    between atoms: _351  and  _353
REMARK  146  A    between atoms: _353  and  _354
REMARK  147  A    between atoms: _353  and  _356
REMARK  148  A    between atoms: _356  and  _357
REMARK  149  A    between atoms: _359  and  _361
REMARK  150  A    between atoms: _361  and  _362
REMARK  151  A    between atoms: _361  and  _364
REMARK  152  A    between atoms: _364  and  _365
REMARK  153  A    between atoms: _375  and  _377
REMARK  154  A    between atoms: _377  and  _378
REMARK  155  A    between atoms: _377  and  _380
REMARK  156  A    between atoms: _380  and  _381
REMARK  157  A    between atoms: _384  and  _386
REMARK  158  A    between atoms: _386  and  _387
REMARK  159  A    between atoms: _386  and  _389
REMARK  160  A    between atoms: _391  and  _393
REMARK  161  A    between atoms: _393  and  _394
REMARK  162  A    between atoms: _393  and  _396
REMARK  163  A    between atoms: _396  and  _397
REMARK  164  A    between atoms: _402  and  _403
REMARK  165  A    between atoms: _405  and  _407
REMARK  166  A    between atoms: _407  and  _408
REMARK  167  A    between atoms: _407  and  _410
REMARK  168  A    between atoms: _410  and  _411
REMARK  169  A    between atoms: _411  and  _412
REMARK  170  A    between atoms: _412  and  _413
REMARK  171  A    between atoms: _413  and  _414
REMARK  172  A    between atoms: _418  and  _420
REMARK  173  A    between atoms: _420  and  _421
REMARK  174  A    between atoms: _420  and  _423
REMARK  175  A    between atoms: _423  and  _424
REMARK  176  A    between atoms: _429  and  _430
REMARK  177  A    between atoms: _432  and  _434
REMARK  178  A    between atoms: _434  and  _435
REMARK  179  A    between atoms: _434  and  _437
REMARK  180  A    between atoms: _437  and  _438
REMARK  181  A    between atoms: _438  and  _439
REMARK  182  A    between atoms: _439  and  _440
REMARK  183  A    between atoms: _449  and  _451
REMARK  184  A    between atoms: _451  and  _452
REMARK  185  A    between atoms: _451  and  _454
REMARK  186  A    between atoms: _457  and  _459
REMARK  187  A    between atoms: _459  and  _460
REMARK  188  A    between atoms: _459  and  _462
REMARK  189  A    between atoms: _462  and  _463
REMARK  190  A    between atoms: _466  and  _468
REMARK  191  A    between atoms: _468  and  _469
REMARK  192  A    between atoms: _468  and  _471
REMARK  193  A    between atoms: _474  and  _476
REMARK  194  A    between atoms: _476  and  _477
REMARK  195  A    between atoms: _476  and  _479
REMARK  196  A    between atoms: _479  and  _480
REMARK  197  A    between atoms: _483  and  _485
REMARK  198  A    between atoms: _485  and  _486
REMARK  199  A    between atoms: _489  and  _491
REMARK  200  A    between atoms: _491  and  _492
REMARK  201  A    between atoms: _494  and  _496
REMARK  202  A    between atoms: _496  and  _497
REMARK  203  A    between atoms: _496  and  _499
REMARK  204  A    between atoms: _499  and  _500
REMARK  205  A    between atoms: _505  and  _507
REMARK  206  A    between atoms: _507  and  _508
REMARK  207  A    between atoms: _507  and  _510
REMARK  208  A    between atoms: _510  and  _511
REMARK  209  A    between atoms: _513  and  _515
REMARK  210  A    between atoms: _515  and  _516
REMARK  211  A    between atoms: _515  and  _518
REMARK  212  A    between atoms: _518  and  _519
REMARK  213  A    between atoms: _522  and  _524
REMARK  214  A    between atoms: _524  and  _525
REMARK  215  A    between atoms: _524  and  _527
REMARK  216  A    between atoms: _527  and  _528
REMARK  217  A    between atoms: _531  and  _533
REMARK  218  A    between atoms: _533  and  _534
REMARK  219  A    between atoms: _533  and  _536
REMARK  220  A    between atoms: _536  and  _537
REMARK  221  A    between atoms: _540  and  _542
REMARK  222  A    between atoms: _542  and  _543
REMARK  223  A    between atoms: _542  and  _545
REMARK  224  A    between atoms: _545  and  _546
REMARK  225  A    between atoms: _549  and  _551
REMARK  226  A    between atoms: _551  and  _552
REMARK  227  A    between atoms: _551  and  _554
REMARK  228  A    between atoms: _554  and  _555
REMARK  229  A    between atoms: _555  and  _556
REMARK  230  A    between atoms: _561  and  _563
REMARK  231  A    between atoms: _563  and  _564
REMARK  232  A    between atoms: _563  and  _566
REMARK  233  A    between atoms: _566  and  _567
REMARK  234  A    between atoms: _570  and  _572
REMARK  235  A    between atoms: _572  and  _573
REMARK  236  A    between atoms: _572  and  _575
REMARK  237  A    between atoms: _575  and  _576
REMARK  238  A    between atoms: _581  and  _583
REMARK  239  A    between atoms: _583  and  _584
REMARK  240  A    between atoms: _583  and  _586
REMARK  241  A    between atoms: _586  and  _587
REMARK  242  A    between atoms: _589  and  _591
REMARK  243  A    between atoms: _591  and  _592
REMARK  244  A    between atoms: _591  and  _594
REMARK  245  A    between atoms: _594  and  _595
REMARK  246  A    between atoms: _595  and  _596
REMARK  247  A    between atoms: _601  and  _603
REMARK  248  A    between atoms: _603  and  _604
REMARK  249  A    between atoms: _603  and  _606
REMARK  250  A    between atoms: _606  and  _607
REMARK  251  A    between atoms: _612  and  _613
REMARK  252  A    between atoms: _615  and  _617
REMARK  253  A    between atoms: _617  and  _618
REMARK  254  A    between atoms: _617  and  _620
REMARK  255  A    between atoms: _620  and  _621
REMARK  256  A    between atoms: _624  and  _626
REMARK  257  A    between atoms: _626  and  _627
REMARK  258  A    between atoms: _626  and  _629
REMARK  259  A    between atoms: _629  and  _630
REMARK  260  A    between atoms: _630  and  _631
REMARK  261  A    between atoms: _631  and  _632
REMARK  262  A    between atoms: _632  and  _633
REMARK  263  A    between atoms: _637  and  _639
REMARK  264  A    between atoms: _639  and  _640
REMARK  265  A    between atoms: _639  and  _642
REMARK  266  A    between atoms: _642  and  _643
REMARK  267  A    between atoms: _646  and  _648
REMARK  268  A    between atoms: _648  and  _649
REMARK  269  A    between atoms: _648  and  _651
REMARK  270  A    between atoms: _651  and  _652
REMARK  271  A    between atoms: _655  and  _657
REMARK  272  A    between atoms: _657  and  _658
REMARK  273  A    between atoms: _657  and  _660
REMARK  274  A    between atoms: _663  and  _665
REMARK  275  A    between atoms: _665  and  _666
REMARK  276  A    between atoms: _665  and  _668
REMARK  277  A    between atoms: _668  and  _669
REMARK                            x       y       z     vdW  Elec       q    Type
REMARK                         _______ _______ _______ _____ _____    ______ ____
ROOT
ATOM      1  C   GLN A   1       2.115  32.788  36.584  0.00  0.00    +0.238 C 
ATOM      2  N   TYR A   2       1.950  31.704  37.334  0.00  0.00    -0.298 N 
ATOM      3  H   TYR A   2       2.429  31.631  38.254  0.00  0.00    +0.150 HD
ATOM      4  O   GLN A   1       1.591  32.912  35.476  0.00  0.00    -0.274 OA
ENDROOT
BRANCH   1   5
ATOM      5  CA  GLN A   1       2.997  33.898  37.151  0.00  0.00    +0.145 C 
BRANCH   5   6
ATOM      6  N   GLN A   1       2.967  33.984  38.602  0.00  0.00    -0.238 NA
ATOM      7  H   GLN A   1       3.817  33.728  39.144  0.00  0.00    +0.142 HD
ENDBRANCH   5   6
BRANCH   5   8
ATOM      8  CB  GLN A   1       4.445  33.745  36.678  0.00  0.00    +0.036 C 
BRANCH   8   9
ATOM      9  CG  GLN A   1       5.235  35.036  36.857  0.00  0.00    +0.087 C 
BRANCH   9  10
ATOM     10  CD  GLN A   1       6.588  35.011  36.186  0.00  0.00    +0.219 C 
ATOM     11  NE2 GLN A   1       7.540  35.745  36.752  0.00  0.00    -0.329 N 
ATOM     12 HE21 GLN A   1       7.337  36.281  37.620  0.00  0.00    +0.145 HD
ATOM     13 HE22 GLN A   1       8.489  35.783  36.327  0.00  0.00    +0.145 HD
ATOM     14  OE1 GLN A   1       6.775  34.356  35.157  0.00  0.00    -0.275 OA
ENDBRANCH   9  10
ENDBRANCH   8   9
ENDBRANCH   5   8
ENDBRANCH   1   5
BRANCH   2  15
ATOM     15  CA  TYR A   2       1.100  30.620  36.868  0.00  0.00    +0.141 C 
BRANCH  15  16
ATOM     16  C   TYR A   2      -0.333  31.139  36.816  0.00  0.00    +0.227 C 
ATOM     17  O   TYR A   2      -1.061  30.877  35.860  0.00  0.00    -0.286 OA
ENDBRANCH  15  16
BRANCH  15  18
ATOM     18  CB  TYR A   2       1.164  29.420  37.811  0.00  0.00    +0.054 C 
BRANCH  18  19
ATOM     19  CG  TYR A   2       0.212  28.318  37.404  0.00  0.00    -0.020 A 
ATOM     20  CD2 TYR A   2      -1.004  28.142  38.068  0.00  0.00    -0.001 A 
ATOM     21  CE2 TYR A   2      -1.916  27.171  37.655  0.00  0.00    +0.036 A 
ATOM     22  CZ  TYR A   2      -1.608  26.365  36.569  0.00  0.00    +0.134 A 
ATOM     23  CE1 TYR A   2      -0.403  26.519  35.898  0.00  0.00    +0.036 A 
ATOM     24  CD1 TYR A   2       0.497  27.491  36.318  0.00  0.00    -0.001 A 
BRANCH  22  25
ATOM     25  OH  TYR A   2      -2.505  25.411  36.148  0.00  0.00    -0.506 OA
ATOM     26  HH  TYR A   2      -3.354  25.849  35.890  0.00  0.00    +0.292 HD
ENDBRANCH  22  25
ENDBRANCH  18  19
ENDBRANCH  15  18
ENDBRANCH   2  15
TORSDOF 10
REMARK  Name = ../refined-set-2016/1s19/1s19_pocket.pdb
REMARK  277 active torsions:
REMARK  status: ('A' for Active; 'I' for Inactive)
REMARK    1  A    between atoms: _1  and  _3
REMARK    2  A    between atoms: _3  and  _4
REMARK    3  A    between atoms: _3  and  _6
REMARK    4  A    between atoms: _6  and  _7
REMARK    5  A    between atoms: _10  and  _12
REMARK    6  A    between atoms: _12  and  _13
REMARK    7  A    between atoms: _12  and  _15
REMARK    8  A    between atoms: _15  and  _16
REMARK    9  A    between atoms: _21  and  _22
REMARK   10  A    between atoms: _24  and  _26
REMARK   11  A    between atoms: _26  and  _27
REMARK   12  A    between atoms: _26  and  _29
REMARK   13  A    between atoms: _29  and  _30
REMARK   14  A    between atoms: _33  and  _35
REMARK   15  A    between atoms: _35  and  _36
REMARK   16  A    between atoms: _35  and  _38
REMARK   17  A    between atoms: _38  and  _39
REMARK   18  A    between atoms: _44  and  _45
REMARK   19  A    between atoms: _47  and  _49
REMARK   20  A    between atoms: _49  and  _50
REMARK   21  A    between atoms: _49  and  _52
REMARK   22  A    between atoms: _52  and  _53
REMARK   23  A    between atoms: _59  and  _61
REMARK   24  A    between atoms: _61  and  _62
REMARK   25  A    between atoms: _61  and  _64
REMARK   26  A    between atoms: _64  and  _65
REMARK   27  A    between atoms: _71  and  _73
REMARK   28  A    between atoms: _73  and  _74
REMARK   29  A    between atoms: _73  and  _76
REMARK   30  A    between atoms: _76  and  _77
REMARK   31  A    between atoms: _77  and  _78
REMARK   32  A    between atoms: _78  and  _79
REMARK   33  A    between atoms: _88  and  _90
REMARK   34  A    between atoms: _90  and  _91
REMARK   35  A    between atoms: _90  and  _93
REMARK   36  A    between atoms: _93  and  _94
REMARK   37  A    between atoms: _94  and  _95
REMARK   38  A    between atoms: _97  and  _99
REMARK   39  A    between atoms: _99  and  _100
REMARK   40  A    between atoms: _99  and  _102
REMARK   41  A    between atoms: _102  and  _103
REMARK   42  A    between atoms: _107  and  _108
REMARK   43  A    between atoms: _113  and  _115
REMARK   44  A    between atoms: _115  and  _116
REMARK   45  A    between atoms: _115  and  _118
REMARK   46  A    between atoms: _118  and  _119
REMARK   47  A    between atoms: _124  and  _126
REMARK   48  A    between atoms: _126  and  _127
REMARK   49  A    between atoms: _126  and  _129
REMARK   50  A    between atoms: _129  and  _130
REMARK   51  A    between atoms: _133  and  _135
REMARK   52  A    between atoms: _135  and  _136
REMARK   53  A    between atoms: _139  and  _141
REMARK   54  A    between atoms: _141  and  _142
REMARK   55  A    between atoms: _141  and  _144
REMARK   56  A    between atoms: _144  and  _145
REMARK   57  A    between atoms: _148  and  _150
REMARK   58  A    between atoms: _150  and  _151
REMARK   59  A    between atoms: _150  and  _153
REMARK   60  A    between atoms: _153  and  _154
REMARK   61  A    between atoms: _157  and  _159
REMARK   62  A    between atoms: _159  and  _160
REMARK   63  A    between atoms: _159  and  _162
REMARK   64  A    between atoms: _165  and  _167
REMARK   65  A    between atoms: _167  and  _168
REMARK   66  A    between atoms: _167  and  _170
REMARK   67  A    between atoms: _170  and  _171
REMARK   68  A    between atoms: _173  and  _175
REMARK   69  A    between atoms: _175  and  _176
REMARK   70  A    between atoms: _175  and  _178
REMARK   71  A    between atoms: _178  and  _179
REMARK   72  A    between atoms: _184  and  _185
REMARK   73  A    between atoms: _187  and  _189
REMARK   74  A    between atoms: _189  and  _190
REMARK   75  A    between atoms: _189  and  _192
REMARK   76  A    between atoms: _192  and  _193
REMARK   77  A    between atoms: _195  and  _197
REMARK   78  A    between atoms: _197  and  _198
REMARK   79  A    between atoms: _197  and  _200
REMARK   80  A    between atoms: _200  and  _201
REMARK   81  A    between atoms: _204  and  _206
REMARK   82  A    between atoms: _206  and  _207
REMARK   83  A    between atoms: _206  and  _209
REMARK   84  A    between atoms: _209  and  _210
REMARK   85  A    between atoms: _210  and  _211
REMARK   86  A    between atoms: _211  and  _212
REMARK   87  A    between atoms: _212  and  _213
REMARK   88  A    between atoms: _217  and  _219
REMARK   89  A    between atoms: _219  and  _220
REMARK   90  A    between atoms: _219  and  _222
REMARK   91  A    between atoms: _225  and  _227
REMARK   92  A    between atoms: _227  and  _228
REMARK   93  A    between atoms: _231  and  _233
REMARK   94  A    between atoms: _233  and  _234
REMARK   95  A    between atoms: _233  and  _236
REMARK   96  A    between atoms: _236  and  _237
REMARK   97  A    between atoms: _240  and  _242
REMARK   98  A    between atoms: _242  and  _243
REMARK   99  A    between atoms: _242  and  _245
REMARK  100  A    between atoms: _245  and  _246
REMARK  101  A    between atoms: _246  and  _247
REMARK  102  A    between atoms: _250  and  _252
REMARK  103  A    between atoms: _252  and  _253
REMARK  104  A    between atoms: _252  and  _255
REMARK  105  A    between atoms: _258  and  _260
REMARK  106  A    between atoms: _260  and  _261
REMARK  107  A    between atoms: _260  and  _263
REMARK  108  A    between atoms: _263  and  _264
REMARK  109  A    between atoms: _267  and  _269
REMARK  110  A    between atoms: _269  and  _270
REMARK  111  A    between atoms: _269  and  _272
REMARK  112  A    between atoms: _272  and  _273
REMARK  113  A    between atoms: _273  and  _274
REMARK  114  A    between atoms: _276  and  _278
REMARK  115  A    between atoms: _278  and  _279
REMARK  116  A    between atoms: _278  and  _281
REMARK  117  A    between atoms: _281  and  _282
REMARK  118  A    between atoms: _285  and  _287
REMARK  119  A    between atoms: _287  and  _288
REMARK  120  A    between atoms: _287  and  _290
REMARK  121  A    between atoms: _290  and  _291
REMARK  122  A    between atoms: _291  and  _292
REMARK  123  A    between atoms: _292  and  _293
REMARK  124  A    between atoms: _302  and  _304
REMARK  125  A    between atoms: _304  and  _305
REMARK  126  A    between atoms: _304  and  _307
REMARK  127  A    between atoms: _307  and  _308
REMARK  128  A    between atoms: _310  and  _312
REMARK  129  A    between atoms: _312  and  _313
REMARK  130  A    between atoms: _312  and  _315
REMARK  131  A    between atoms: _315  and  _316
REMARK  132  A    between atoms: _321  and  _323
REMARK  133  A    between atoms: _323  and  _324
REMARK  134  A    between atoms: _323  and  _326
REMARK  135  A    between atoms: _326  and  _327
REMARK  136  A    between atoms: _327  and  _328
REMARK  137  A    between atoms: _331  and  _333
REMARK  138  A    between atoms: _333  and  _334
REMARK  139  A    between atoms: _333  and  _336
REMARK  140  A    between atoms: _336  and  _337
REMARK  141  A    between atoms: _339  and  _341
REMARK  142  A    between atoms: _341  and  _342
REMARK  143  A    between atoms: _341  and  _344
REMARK  144  A    between atoms: _344  and  _345
REMARK  145  A    between atoms: _351  and  _353
REMARK  146  A    between atoms: _353  and  _354
REMARK  147  A    between atoms: _353  and  _356
REMARK  148  A    between atoms: _356  and  _357
REMARK  149  A    between atoms: _359  and  _361
REMARK  150  A    between atoms: _361  and  _362
REMARK  151  A    between atoms: _361  and  _364
REMARK  152  A    between atoms: _364  and  _365
REMARK  153  A    between atoms: _375  and  _377
REMARK  154  A    between atoms: _377  and  _378
REMARK  155  A    between atoms: _377  and  _380
REMARK  156  A    between atoms: _380  and  _381
REMARK  157  A    between atoms: _384  and  _386
REMARK  158  A    between atoms: _386  and  _387
REMARK  159  A    between atoms: _386  and  _389
REMARK  160  A    between atoms: _391  and  _393
REMARK  161  A    between atoms: _393  and  _394
REMARK  162  A    between atoms: _393  and  _396
REMARK  163  A    between atoms: _396  and  _397
REMARK  164  A    between atoms: _402  and  _403
REMARK  165  A    between atoms: _405  and  _407
REMARK  166  A    between atoms: _407  and  _408
REMARK  167  A    between atoms: _407  and  _410
REMARK  168  A    between atoms: _410  and  _411
REMARK  169  A    between atoms: _411  and  _412
REMARK  170  A    between atoms: _412  and  _413
REMARK  171  A    between atoms: _413  and  _414
REMARK  172  A    between atoms: _418  and  _420
REMARK  173  A    between atoms: _420  and  _421
REMARK  174  A    between atoms: _420  and  _423
REMARK  175  A    between atoms: _423  and  _424
REMARK  176  A    between atoms: _429  and  _430
REMARK  177  A    between atoms: _432  and  _434
REMARK  178  A    between atoms: _434  and  _435
REMARK  179  A    between atoms: _434  and  _437
REMARK  180  A    between atoms: _437  and  _438
REMARK  181  A    between atoms: _438  and  _439
REMARK  182  A    between atoms: _439  and  _440
REMARK  183  A    between atoms: _449  and  _451
REMARK  184  A    between atoms: _451  and  _452
REMARK  185  A    between atoms: _451  and  _454
REMARK  186  A    between atoms: _457  and  _459
REMARK  187  A    between atoms: _459  and  _460
REMARK  188  A    between atoms: _459  and  _462
REMARK  189  A    between atoms: _462  and  _463
REMARK  190  A    between atoms: _466  and  _468
REMARK  191  A    between atoms: _468  and  _469
REMARK  192  A    between atoms: _468  and  _471
REMARK  193  A    between atoms: _474  and  _476
REMARK  194  A    between atoms: _476  and  _477
REMARK  195  A    between atoms: _476  and  _479
REMARK  196  A    between atoms: _479  and  _480
REMARK  197  A    between atoms: _483  and  _485
REMARK  198  A    between atoms: _485  and  _486
REMARK  199  A    between atoms: _489  and  _491
REMARK  200  A    between atoms: _491  and  _492
REMARK  201  A    between atoms: _494  and  _496
REMARK  202  A    between atoms: _496  and  _497
REMARK  203  A    between atoms: _496  and  _499
REMARK  204  A    between atoms: _499  and  _500
REMARK  205  A    between atoms: _505  and  _507
REMARK  206  A    between atoms: _507  and  _508
REMARK  207  A    between atoms: _507  and  _510
REMARK  208  A    between atoms: _510  and  _511
REMARK  209  A    between atoms: _513  and  _515
REMARK  210  A    between atoms: _515  and  _516
REMARK  211  A    between atoms: _515  and  _518
REMARK  212  A    between atoms: _518  and  _519
REMARK  213  A    between atoms: _522  and  _524
REMARK  214  A    between atoms: _524  and  _525
REMARK  215  A    between atoms: _524  and  _527
REMARK  216  A    between atoms: _527  and  _528
REMARK  217  A    between atoms: _531  and  _533
REMARK  218  A    between atoms: _533  and  _534
REMARK  219  A    between atoms: _533  and  _536
REMARK  220  A    between atoms: _536  and  _537
REMARK  221  A    between atoms: _540  and  _542
REMARK  222  A    between atoms: _542  and  _543
REMARK  223  A    between atoms: _542  and  _545
REMARK  224  A    between atoms: _545  and  _546
REMARK  225  A    between atoms: _549  and  _551
REMARK  226  A    between atoms: _551  and  _552
REMARK  227  A    between atoms: _551  and  _554
REMARK  228  A    between atoms: _554  and  _555
REMARK  229  A    between atoms: _555  and  _556
REMARK  230  A    between atoms: _561  and  _563
REMARK  231  A    between atoms: _563  and  _564
REMARK  232  A    between atoms: _563  and  _566
REMARK  233  A    between atoms: _566  and  _567
REMARK  234  A    between atoms: _570  and  _572
REMARK  235  A    between atoms: _572  and  _573
REMARK  236  A    between atoms: _572  and  _575
REMARK  237  A    between atoms: _575  and  _576
REMARK  238  A    between atoms: _581  and  _583
REMARK  239  A    between atoms: _583  and  _584
REMARK  240  A    between atoms: _583  and  _586
REMARK  241  A    between atoms: _586  and  _587
REMARK  242  A    between atoms: _589  and  _591
REMARK  243  A    between atoms: _591  and  _592
REMARK  244  A    between atoms: _591  and  _594
REMARK  245  A    between atoms: _594  and  _595
REMARK  246  A    between atoms: _595  and  _596
REMARK  247  A    between atoms: _601  and  _603
REMARK  248  A    between atoms: _603  and  _604
REMARK  249  A    between atoms: _603  and  _606
REMARK  250  A    between atoms: _606  and  _607
REMARK  251  A    between atoms: _612  and  _613
REMARK  252  A    between atoms: _615  and  _617
REMARK  253  A    between atoms: _617  and  _618
REMARK  254  A    between atoms: _617  and  _620
REMARK  255  A    between atoms: _620  and  _621
REMARK  256  A    between atoms: _624  and  _626
REMARK  257  A    between atoms: _626  and  _627
REMARK  258  A    between atoms: _626  and  _629
REMARK  259  A    between atoms: _629  and  _630
REMARK  260  A    between atoms: _630  and  _631
REMARK  261  A    between atoms: _631  and  _632
REMARK  262  A    between atoms: _632  and  _633
REMARK  263  A    between atoms: _637  and  _639
REMARK  264  A    between atoms: _639  and  _640
REMARK  265  A    between atoms: _639  and  _642
REMARK  266  A    between atoms: _642  and  _643
REMARK  267  A    between atoms: _646  and  _648
REMARK  268  A    between atoms: _648  and  _649
REMARK  269  A    between atoms: _648  and  _651
REMARK  270  A    between atoms: _651  and  _652
REMARK  271  A    between atoms: _655  and  _657
REMARK  272  A    between atoms: _657  and  _658
REMARK  273  A    between atoms: _657  and  _660
REMARK  274  A    between atoms: _663  and  _665
REMARK  275  A    between atoms: _665  and  _666
REMARK  276  A    between atoms: _665  and  _668
REMARK  277  A    between atoms: _668  and  _669
REMARK                            x       y       z     vdW  Elec       q    Type
REMARK                         _______ _______ _______ _____ _____    ______ ____
ROOT
ATOM      1  CA  LEU A   1      -0.982  32.227  32.717  0.00  0.00    +0.133 C 
ENDROOT
BRANCH   1   2
ATOM      2  N   LEU A   1      -0.997  33.149  33.839  0.00  0.00    -0.239 NA
ATOM      3  H   LEU A   1      -0.316  33.010  34.613  0.00  0.00    +0.142 HD
ENDBRANCH   1   2
BRANCH   1   4
ATOM      4  C   LEU A   1      -2.323  31.501  32.584  0.00  0.00    +0.224 C 
ATOM      5  O   LEU A   1      -2.806  31.270  31.479  0.00  0.00    -0.287 OA
ENDBRANCH   1   4
BRANCH   1   6
ATOM      6  CB  LEU A   1       0.150  31.213  32.910  0.00  0.00    +0.025 C 
BRANCH   6   7
ATOM      7  CG  LEU A   1       0.514  30.324  31.728  0.00  0.00    +0.002 C 
ATOM      8  CD2 LEU A   1       1.616  29.365  32.143  0.00  0.00    +0.000 C 
ATOM      9  CD1 LEU A   1       0.968  31.188  30.560  0.00  0.00    +0.000 C 
ENDBRANCH   6   7
ENDBRANCH   1   6
TORSDOF 4
REMARK  Name = ../refined-set-2016/1s19/1s19_pocket.pdb
REMARK  277 active torsions:
REMARK  status: ('A' for Active; 'I' for Inactive)
REMARK    1  A    between atoms: _1  and  _3
REMARK    2  A    between atoms: _3  and  _4
REMARK    3  A    between atoms: _3  and  _6
REMARK    4  A    between atoms: _6  and  _7
REMARK    5  A    between atoms: _10  and  _12
REMARK    6  A    between atoms: _12  and  _13
REMARK    7  A    between atoms: _12  and  _15
REMARK    8  A    between atoms: _15  and  _16
REMARK    9  A    between atoms: _21  and  _22
REMARK   10  A    between atoms: _24  and  _26
REMARK   11  A    between atoms: _26  and  _27
REMARK   12  A    between atoms: _26  and  _29
REMARK   13  A    between atoms: _29  and  _30
REMARK   14  A    between atoms: _33  and  _35
REMARK   15  A    between atoms: _35  and  _36
REMARK   16  A    between atoms: _35  and  _38
REMARK   17  A    between atoms: _38  and  _39
REMARK   18  A    between atoms: _44  and  _45
REMARK   19  A    between atoms: _47  and  _49
REMARK   20  A    between atoms: _49  and  _50
REMARK   21  A    between atoms: _49  and  _52
REMARK   22  A    between atoms: _52  and  _53
REMARK   23  A    between atoms: _59  and  _61
REMARK   24  A    between atoms: _61  and  _62
REMARK   25  A    between atoms: _61  and  _64
REMARK   26  A    between atoms: _64  and  _65
REMARK   27  A    between atoms: _71  and  _73
REMARK   28  A    between atoms: _73  and  _74
REMARK   29  A    between atoms: _73  and  _76
REMARK   30  A    between atoms: _76  and  _77
REMARK   31  A    between atoms: _77  and  _78
REMARK   32  A    between atoms: _78  and  _79
REMARK   33  A    between atoms: _88  and  _90
REMARK   34  A    between atoms: _90  and  _91
REMARK   35  A    between atoms: _90  and  _93
REMARK   36  A    between atoms: _93  and  _94
REMARK   37  A    between atoms: _94  and  _95
REMARK   38  A    between atoms: _97  and  _99
REMARK   39  A    between atoms: _99  and  _100
REMARK   40  A    between atoms: _99  and  _102
REMARK   41  A    between atoms: _102  and  _103
REMARK   42  A    between atoms: _107  and  _108
REMARK   43  A    between atoms: _113  and  _115
REMARK   44  A    between atoms: _115  and  _116
REMARK   45  A    between atoms: _115  and  _118
REMARK   46  A    between atoms: _118  and  _119
REMARK   47  A    between atoms: _124  and  _126
REMARK   48  A    between atoms: _126  and  _127
REMARK   49  A    between atoms: _126  and  _129
REMARK   50  A    between atoms: _129  and  _130
REMARK   51  A    between atoms: _133  and  _135
REMARK   52  A    between atoms: _135  and  _136
REMARK   53  A    between atoms: _139  and  _141
REMARK   54  A    between atoms: _141  and  _142
REMARK   55  A    between atoms: _141  and  _144
REMARK   56  A    between atoms: _144  and  _145
REMARK   57  A    between atoms: _148  and  _150
REMARK   58  A    between atoms: _150  and  _151
REMARK   59  A    between atoms: _150  and  _153
REMARK   60  A    between atoms: _153  and  _154
REMARK   61  A    between atoms: _157  and  _159
REMARK   62  A    between atoms: _159  and  _160
REMARK   63  A    between atoms: _159  and  _162
REMARK   64  A    between atoms: _165  and  _167
REMARK   65  A    between atoms: _167  and  _168
REMARK   66  A    between atoms: _167  and  _170
REMARK   67  A    between atoms: _170  and  _171
REMARK   68  A    between atoms: _173  and  _175
REMARK   69  A    between atoms: _175  and  _176
REMARK   70  A    between atoms: _175  and  _178
REMARK   71  A    between atoms: _178  and  _179
REMARK   72  A    between atoms: _184  and  _185
REMARK   73  A    between atoms: _187  and  _189
REMARK   74  A    between atoms: _189  and  _190
REMARK   75  A    between atoms: _189  and  _192
REMARK   76  A    between atoms: _192  and  _193
REMARK   77  A    between atoms: _195  and  _197
REMARK   78  A    between atoms: _197  and  _198
REMARK   79  A    between atoms: _197  and  _200
REMARK   80  A    between atoms: _200  and  _201
REMARK   81  A    between atoms: _204  and  _206
REMARK   82  A    between atoms: _206  and  _207
REMARK   83  A    between atoms: _206  and  _209
REMARK   84  A    between atoms: _209  and  _210
REMARK   85  A    between atoms: _210  and  _211
REMARK   86  A    between atoms: _211  and  _212
REMARK   87  A    between atoms: _212  and  _213
REMARK   88  A    between atoms: _217  and  _219
REMARK   89  A    between atoms: _219  and  _220
REMARK   90  A    between atoms: _219  and  _222
REMARK   91  A    between atoms: _225  and  _227
REMARK   92  A    between atoms: _227  and  _228
REMARK   93  A    between atoms: _231  and  _233
REMARK   94  A    between atoms: _233  and  _234
REMARK   95  A    between atoms: _233  and  _236
REMARK   96  A    between atoms: _236  and  _237
REMARK   97  A    between atoms: _240  and  _242
REMARK   98  A    between atoms: _242  and  _243
REMARK   99  A    between atoms: _242  and  _245
REMARK  100  A    between atoms: _245  and  _246
REMARK  101  A    between atoms: _246  and  _247
REMARK  102  A    between atoms: _250  and  _252
REMARK  103  A    between atoms: _252  and  _253
REMARK  104  A    between atoms: _252  and  _255
REMARK  105  A    between atoms: _258  and  _260
REMARK  106  A    between atoms: _260  and  _261
REMARK  107  A    between atoms: _260  and  _263
REMARK  108  A    between atoms: _263  and  _264
REMARK  109  A    between atoms: _267  and  _269
REMARK  110  A    between atoms: _269  and  _270
REMARK  111  A    between atoms: _269  and  _272
REMARK  112  A    between atoms: _272  and  _273
REMARK  113  A    between atoms: _273  and  _274
REMARK  114  A    between atoms: _276  and  _278
REMARK  115  A    between atoms: _278  and  _279
REMARK  116  A    between atoms: _278  and  _281
REMARK  117  A    between atoms: _281  and  _282
REMARK  118  A    between atoms: _285  and  _287
REMARK  119  A    between atoms: _287  and  _288
REMARK  120  A    between atoms: _287  and  _290
REMARK  121  A    between atoms: _290  and  _291
REMARK  122  A    between atoms: _291  and  _292
REMARK  123  A    between atoms: _292  and  _293
REMARK  124  A    between atoms: _302  and  _304
REMARK  125  A    between atoms: _304  and  _305
REMARK  126  A    between atoms: _304  and  _307
REMARK  127  A    between atoms: _307  and  _308
REMARK  128  A    between atoms: _310  and  _312
REMARK  129  A    between atoms: _312  and  _313
REMARK  130  A    between atoms: _312  and  _315
REMARK  131  A    between atoms: _315  and  _316
REMARK  132  A    between atoms: _321  and  _323
REMARK  133  A    between atoms: _323  and  _324
REMARK  134  A    between atoms: _323  and  _326
REMARK  135  A    between atoms: _326  and  _327
REMARK  136  A    between atoms: _327  and  _328
REMARK  137  A    between atoms: _331  and  _333
REMARK  138  A    between atoms: _333  and  _334
REMARK  139  A    between atoms: _333  and  _336
REMARK  140  A    between atoms: _336  and  _337
REMARK  141  A    between atoms: _339  and  _341
REMARK  142  A    between atoms: _341  and  _342
REMARK  143  A    between atoms: _341  and  _344
REMARK  144  A    between atoms: _344  and  _345
REMARK  145  A    between atoms: _351  and  _353
REMARK  146  A    between atoms: _353  and  _354
REMARK  147  A    between atoms: _353  and  _356
REMARK  148  A    between atoms: _356  and  _357
REMARK  149  A    between atoms: _359  and  _361
REMARK  150  A    between atoms: _361  and  _362
REMARK  151  A    between atoms: _361  and  _364
REMARK  152  A    between atoms: _364  and  _365
REMARK  153  A    between atoms: _375  and  _377
REMARK  154  A    between atoms: _377  and  _378
REMARK  155  A    between atoms: _377  and  _380
REMARK  156  A    between atoms: _380  and  _381
REMARK  157  A    between atoms: _384  and  _386
REMARK  158  A    between atoms: _386  and  _387
REMARK  159  A    between atoms: _386  and  _389
REMARK  160  A    between atoms: _391  and  _393
REMARK  161  A    between atoms: _393  and  _394
REMARK  162  A    between atoms: _393  and  _396
REMARK  163  A    between atoms: _396  and  _397
REMARK  164  A    between atoms: _402  and  _403
REMARK  165  A    between atoms: _405  and  _407
REMARK  166  A    between atoms: _407  and  _408
REMARK  167  A    between atoms: _407  and  _410
REMARK  168  A    between atoms: _410  and  _411
REMARK  169  A    between atoms: _411  and  _412
REMARK  170  A    between atoms: _412  and  _413
REMARK  171  A    between atoms: _413  and  _414
REMARK  172  A    between atoms: _418  and  _420
REMARK  173  A    between atoms: _420  and  _421
REMARK  174  A    between atoms: _420  and  _423
REMARK  175  A    between atoms: _423  and  _424
REMARK  176  A    between atoms: _429  and  _430
REMARK  177  A    between atoms: _432  and  _434
REMARK  178  A    between atoms: _434  and  _435
REMARK  179  A    between atoms: _434  and  _437
REMARK  180  A    between atoms: _437  and  _438
REMARK  181  A    between atoms: _438  and  _439
REMARK  182  A    between atoms: _439  and  _440
REMARK  183  A    between atoms: _449  and  _451
REMARK  184  A    between atoms: _451  and  _452
REMARK  185  A    between atoms: _451  and  _454
REMARK  186  A    between atoms: _457  and  _459
REMARK  187  A    between atoms: _459  and  _460
REMARK  188  A    between atoms: _459  and  _462
REMARK  189  A    between atoms: _462  and  _463
REMARK  190  A    between atoms: _466  and  _468
REMARK  191  A    between atoms: _468  and  _469
REMARK  192  A    between atoms: _468  and  _471
REMARK  193  A    between atoms: _474  and  _476
REMARK  194  A    between atoms: _476  and  _477
REMARK  195  A    between atoms: _476  and  _479
REMARK  196  A    between atoms: _479  and  _480
REMARK  197  A    between atoms: _483  and  _485
REMARK  198  A    between atoms: _485  and  _486
REMARK  199  A    between atoms: _489  and  _491
REMARK  200  A    between atoms: _491  and  _492
REMARK  201  A    between atoms: _494  and  _496
REMARK  202  A    between atoms: _496  and  _497
REMARK  203  A    between atoms: _496  and  _499
REMARK  204  A    between atoms: _499  and  _500
REMARK  205  A    between atoms: _505  and  _507
REMARK  206  A    between atoms: _507  and  _508
REMARK  207  A    between atoms: _507  and  _510
REMARK  208  A    between atoms: _510  and  _511
REMARK  209  A    between atoms: _513  and  _515
REMARK  210  A    between atoms: _515  and  _516
REMARK  211  A    between atoms: _515  and  _518
REMARK  212  A    between atoms: _518  and  _519
REMARK  213  A    between atoms: _522  and  _524
REMARK  214  A    between atoms: _524  and  _525
REMARK  215  A    between atoms: _524  and  _527
REMARK  216  A    between atoms: _527  and  _528
REMARK  217  A    between atoms: _531  and  _533
REMARK  218  A    between atoms: _533  and  _534
REMARK  219  A    between atoms: _533  and  _536
REMARK  220  A    between atoms: _536  and  _537
REMARK  221  A    between atoms: _540  and  _542
REMARK  222  A    between atoms: _542  and  _543
REMARK  223  A    between atoms: _542  and  _545
REMARK  224  A    between atoms: _545  and  _546
REMARK  225  A    between atoms: _549  and  _551
REMARK  226  A    between atoms: _551  and  _552
REMARK  227  A    between atoms: _551  and  _554
REMARK  228  A    between atoms: _554  and  _555
REMARK  229  A    between atoms: _555  and  _556
REMARK  230  A    between atoms: _561  and  _563
REMARK  231  A    between atoms: _563  and  _564
REMARK  232  A    between atoms: _563  and  _566
REMARK  233  A    between atoms: _566  and  _567
REMARK  234  A    between atoms: _570  and  _572
REMARK  235  A    between atoms: _572  and  _573
REMARK  236  A    between atoms: _572  and  _575
REMARK  237  A    between atoms: _575  and  _576
REMARK  238  A    between atoms: _581  and  _583
REMARK  239  A    between atoms: _583  and  _584
REMARK  240  A    between atoms: _583  and  _586
REMARK  241  A    between atoms: _586  and  _587
REMARK  242  A    between atoms: _589  and  _591
REMARK  243  A    between atoms: _591  and  _592
REMARK  244  A    between atoms: _591  and  _594
REMARK  245  A    between atoms: _594  and  _595
REMARK  246  A    between atoms: _595  and  _596
REMARK  247  A    between atoms: _601  and  _603
REMARK  248  A    between atoms: _603  and  _604
REMARK  249  A    between atoms: _603  and  _606
REMARK  250  A    between atoms: _606  and  _607
REMARK  251  A    between atoms: _612  and  _613
REMARK  252  A    between atoms: _615  and  _617
REMARK  253  A    between atoms: _617  and  _618
REMARK  254  A    between atoms: _617  and  _620
REMARK  255  A    between atoms: _620  and  _621
REMARK  256  A    between atoms: _624  and  _626
REMARK  257  A    between atoms: _626  and  _627
REMARK  258  A    between atoms: _626  and  _629
REMARK  259  A    between atoms: _629  and  _630
REMARK  260  A    between atoms: _630  and  _631
REMARK  261  A    between atoms: _631  and  _632
REMARK  262  A    between atoms: _632  and  _633
REMARK  263  A    between atoms: _637  and  _639
REMARK  264  A    between atoms: _639  and  _640
REMARK  265  A    between atoms: _639  and  _642
REMARK  266  A    between atoms: _642  and  _643
REMARK  267  A    between atoms: _646  and  _648
REMARK  268  A    between atoms: _648  and  _649
REMARK  269  A    between atoms: _648  and  _651
REMARK  270  A    between atoms: _651  and  _652
REMARK  271  A    between atoms: _655  and  _657
REMARK  272  A    between atoms: _657  and  _658
REMARK  273  A    between atoms: _657  and  _660
REMARK  274  A    between atoms: _663  and  _665
REMARK  275  A    between atoms: _665  and  _666
REMARK  276  A    between atoms: _665  and  _668
REMARK  277  A    between atoms: _668  and  _669
REMARK                            x       y       z     vdW  Elec       q    Type
REMARK                         _______ _______ _______ _____ _____    ______ ____
ROOT
ATOM      1  CA  LEU A   2      -0.914  21.697  30.420  0.00  0.00    +0.149 C 
ENDROOT
BRANCH   1   3
ATOM      2  C   LYS A   1      -0.777  22.482  28.132  0.00  0.00    +0.238 C 
ATOM      3  N   LEU A   2      -1.514  22.208  29.201  0.00  0.00    -0.297 N 
ATOM      4  H   LEU A   2      -2.542  22.362  29.165  0.00  0.00    +0.150 HD
ATOM      5  O   LYS A   1       0.439  22.327  28.106  0.00  0.00    -0.274 OA
BRANCH   2   6
ATOM      6  CA  LYS A   1      -1.526  23.003  26.913  0.00  0.00    +0.145 C 
BRANCH   6   7
ATOM      7  N   LYS A   1      -2.964  23.051  27.136  0.00  0.00    -0.238 NA
ATOM      8  H   LYS A   1      -3.396  23.919  27.512  0.00  0.00    +0.142 HD
ENDBRANCH   6   7
BRANCH   6   9
ATOM      9  CB  LYS A   1      -1.014  24.390  26.523  0.00  0.00    +0.026 C 
BRANCH   9  10
ATOM     10  CG  LYS A   1      -1.627  24.908  25.231  0.00  0.00    -0.000 C 
BRANCH  10  11
ATOM     11  CD  LYS A   1      -1.068  26.259  24.833  0.00  0.00    -0.024 C 
BRANCH  11  12
ATOM     12  CE  LYS A   1      -1.689  26.735  23.525  0.00  0.00    -0.086 C 
BRANCH  12  13
ATOM     13  NZ  LYS A   1      -3.168  26.883  23.641  0.00  0.00    +0.380 N 
ATOM     14  HZ1 LYS A   1      -3.389  27.579  24.382  0.00  0.00    -0.089 HD
ATOM     15  HZ2 LYS A   1      -3.589  25.965  23.890  0.00  0.00    -0.089 HD
ATOM     16  HZ3 LYS A   1      -3.555  27.208  22.732  0.00  0.00    -0.089 HD
ENDBRANCH  12  13
ENDBRANCH  11  12
ENDBRANCH  10  11
ENDBRANCH   9  10
ENDBRANCH   6   9
ENDBRANCH   2   6
ENDBRANCH   1   3
BRANCH   1  17
ATOM     17  C   LEU A   2      -1.294  20.227  30.558  0.00  0.00    +0.241 C 
ATOM     18  N   THR A   3      -1.410  19.748  31.790  0.00  0.00    -0.296 N 
ATOM     19  H   THR A   3      -1.224  20.375  32.598  0.00  0.00    +0.150 HD
ATOM     20  O   LEU A   2      -1.458  19.534  29.559  0.00  0.00    -0.273 OA
BRANCH  18  21
ATOM     21  CA  THR A   3      -1.791  18.365  32.036  0.00  0.00    +0.164 C 
BRANCH  21  22
ATOM     22  C   THR A   3      -2.606  18.357  33.315  0.00  0.00    +0.229 C 
ATOM     23  O   THR A   3      -2.497  19.274  34.129  0.00  0.00    -0.286 OA
ENDBRANCH  21  22
BRANCH  21  24
ATOM     24  CB  THR A   3      -0.560  17.435  32.247  0.00  0.00    +0.136 C 
ATOM     25  CG2 THR A   3       0.499  17.682  31.182  0.00  0.00    +0.034 C 
BRANCH  24  26
ATOM     26  OG1 THR A   3       0.009  17.675  33.539  0.00  0.00    -0.382 OA
ATOM     27  HG1 THR A   3       0.791  17.082  33.669  0.00  0.00    +0.210 HD
ENDBRANCH  24  26
ENDBRANCH  21  24
ENDBRANCH  18  21
ENDBRANCH   1  17
BRANCH   1  28
ATOM     28  CB  LEU A   2      -1.411  22.506  31.617  0.00  0.00    +0.029 C 
BRANCH  28  29
ATOM     29  CG  LEU A   2      -1.114  24.007  31.510  0.00  0.00    +0.002 C 
ATOM     30  CD2 LEU A   2      -1.736  24.742  32.683  0.00  0.00    +0.000 C 
ATOM     31  CD1 LEU A   2       0.388  24.237  31.468  0.00  0.00    +0.000 C 
ENDBRANCH  28  29
ENDBRANCH   1  28
TORSDOF 15
REMARK  Name = ../refined-set-2016/1s19/1s19_pocket.pdb
REMARK  277 active torsions:
REMARK  status: ('A' for Active; 'I' for Inactive)
REMARK    1  A    between atoms: _1  and  _3
REMARK    2  A    between atoms: _3  and  _4
REMARK    3  A    between atoms: _3  and  _6
REMARK    4  A    between atoms: _6  and  _7
REMARK    5  A    between atoms: _10  and  _12
REMARK    6  A    between atoms: _12  and  _13
REMARK    7  A    between atoms: _12  and  _15
REMARK    8  A    between atoms: _15  and  _16
REMARK    9  A    between atoms: _21  and  _22
REMARK   10  A    between atoms: _24  and  _26
REMARK   11  A    between atoms: _26  and  _27
REMARK   12  A    between atoms: _26  and  _29
REMARK   13  A    between atoms: _29  and  _30
REMARK   14  A    between atoms: _33  and  _35
REMARK   15  A    between atoms: _35  and  _36
REMARK   16  A    between atoms: _35  and  _38
REMARK   17  A    between atoms: _38  and  _39
REMARK   18  A    between atoms: _44  and  _45
REMARK   19  A    between atoms: _47  and  _49
REMARK   20  A    between atoms: _49  and  _50
REMARK   21  A    between atoms: _49  and  _52
REMARK   22  A    between atoms: _52  and  _53
REMARK   23  A    between atoms: _59  and  _61
REMARK   24  A    between atoms: _61  and  _62
REMARK   25  A    between atoms: _61  and  _64
REMARK   26  A    between atoms: _64  and  _65
REMARK   27  A    between atoms: _71  and  _73
REMARK   28  A    between atoms: _73  and  _74
REMARK   29  A    between atoms: _73  and  _76
REMARK   30  A    between atoms: _76  and  _77
REMARK   31  A    between atoms: _77  and  _78
REMARK   32  A    between atoms: _78  and  _79
REMARK   33  A    between atoms: _88  and  _90
REMARK   34  A    between atoms: _90  and  _91
REMARK   35  A    between atoms: _90  and  _93
REMARK   36  A    between atoms: _93  and  _94
REMARK   37  A    between atoms: _94  and  _95
REMARK   38  A    between atoms: _97  and  _99
REMARK   39  A    between atoms: _99  and  _100
REMARK   40  A    between atoms: _99  and  _102
REMARK   41  A    between atoms: _102  and  _103
REMARK   42  A    between atoms: _107  and  _108
REMARK   43  A    between atoms: _113  and  _115
REMARK   44  A    between atoms: _115  and  _116
REMARK   45  A    between atoms: _115  and  _118
REMARK   46  A    between atoms: _118  and  _119
REMARK   47  A    between atoms: _124  and  _126
REMARK   48  A    between atoms: _126  and  _127
REMARK   49  A    between atoms: _126  and  _129
REMARK   50  A    between atoms: _129  and  _130
REMARK   51  A    between atoms: _133  and  _135
REMARK   52  A    between atoms: _135  and  _136
REMARK   53  A    between atoms: _139  and  _141
REMARK   54  A    between atoms: _141  and  _142
REMARK   55  A    between atoms: _141  and  _144
REMARK   56  A    between atoms: _144  and  _145
REMARK   57  A    between atoms: _148  and  _150
REMARK   58  A    between atoms: _150  and  _151
REMARK   59  A    between atoms: _150  and  _153
REMARK   60  A    between atoms: _153  and  _154
REMARK   61  A    between atoms: _157  and  _159
REMARK   62  A    between atoms: _159  and  _160
REMARK   63  A    between atoms: _159  and  _162
REMARK   64  A    between atoms: _165  and  _167
REMARK   65  A    between atoms: _167  and  _168
REMARK   66  A    between atoms: _167  and  _170
REMARK   67  A    between atoms: _170  and  _171
REMARK   68  A    between atoms: _173  and  _175
REMARK   69  A    between atoms: _175  and  _176
REMARK   70  A    between atoms: _175  and  _178
REMARK   71  A    between atoms: _178  and  _179
REMARK   72  A    between atoms: _184  and  _185
REMARK   73  A    between atoms: _187  and  _189
REMARK   74  A    between atoms: _189  and  _190
REMARK   75  A    between atoms: _189  and  _192
REMARK   76  A    between atoms: _192  and  _193
REMARK   77  A    between atoms: _195  and  _197
REMARK   78  A    between atoms: _197  and  _198
REMARK   79  A    between atoms: _197  and  _200
REMARK   80  A    between atoms: _200  and  _201
REMARK   81  A    between atoms: _204  and  _206
REMARK   82  A    between atoms: _206  and  _207
REMARK   83  A    between atoms: _206  and  _209
REMARK   84  A    between atoms: _209  and  _210
REMARK   85  A    between atoms: _210  and  _211
REMARK   86  A    between atoms: _211  and  _212
REMARK   87  A    between atoms: _212  and  _213
REMARK   88  A    between atoms: _217  and  _219
REMARK   89  A    between atoms: _219  and  _220
REMARK   90  A    between atoms: _219  and  _222
REMARK   91  A    between atoms: _225  and  _227
REMARK   92  A    between atoms: _227  and  _228
REMARK   93  A    between atoms: _231  and  _233
REMARK   94  A    between atoms: _233  and  _234
REMARK   95  A    between atoms: _233  and  _236
REMARK   96  A    between atoms: _236  and  _237
REMARK   97  A    between atoms: _240  and  _242
REMARK   98  A    between atoms: _242  and  _243
REMARK   99  A    between atoms: _242  and  _245
REMARK  100  A    between atoms: _245  and  _246
REMARK  101  A    between atoms: _246  and  _247
REMARK  102  A    between atoms: _250  and  _252
REMARK  103  A    between atoms: _252  and  _253
REMARK  104  A    between atoms: _252  and  _255
REMARK  105  A    between atoms: _258  and  _260
REMARK  106  A    between atoms: _260  and  _261
REMARK  107  A    between atoms: _260  and  _263
REMARK  108  A    between atoms: _263  and  _264
REMARK  109  A    between atoms: _267  and  _269
REMARK  110  A    between atoms: _269  and  _270
REMARK  111  A    between atoms: _269  and  _272
REMARK  112  A    between atoms: _272  and  _273
REMARK  113  A    between atoms: _273  and  _274
REMARK  114  A    between atoms: _276  and  _278
REMARK  115  A    between atoms: _278  and  _279
REMARK  116  A    between atoms: _278  and  _281
REMARK  117  A    between atoms: _281  and  _282
REMARK  118  A    between atoms: _285  and  _287
REMARK  119  A    between atoms: _287  and  _288
REMARK  120  A    between atoms: _287  and  _290
REMARK  121  A    between atoms: _290  and  _291
REMARK  122  A    between atoms: _291  and  _292
REMARK  123  A    between atoms: _292  and  _293
REMARK  124  A    between atoms: _302  and  _304
REMARK  125  A    between atoms: _304  and  _305
REMARK  126  A    between atoms: _304  and  _307
REMARK  127  A    between atoms: _307  and  _308
REMARK  128  A    between atoms: _310  and  _312
REMARK  129  A    between atoms: _312  and  _313
REMARK  130  A    between atoms: _312  and  _315
REMARK  131  A    between atoms: _315  and  _316
REMARK  132  A    between atoms: _321  and  _323
REMARK  133  A    between atoms: _323  and  _324
REMARK  134  A    between atoms: _323  and  _326
REMARK  135  A    between atoms: _326  and  _327
REMARK  136  A    between atoms: _327  and  _328
REMARK  137  A    between atoms: _331  and  _333
REMARK  138  A    between atoms: _333  and  _334
REMARK  139  A    between atoms: _333  and  _336
REMARK  140  A    between atoms: _336  and  _337
REMARK  141  A    between atoms: _339  and  _341
REMARK  142  A    between atoms: _341  and  _342
REMARK  143  A    between atoms: _341  and  _344
REMARK  144  A    between atoms: _344  and  _345
REMARK  145  A    between atoms: _351  and  _353
REMARK  146  A    between atoms: _353  and  _354
REMARK  147  A    between atoms: _353  and  _356
REMARK  148  A    between atoms: _356  and  _357
REMARK  149  A    between atoms: _359  and  _361
REMARK  150  A    between atoms: _361  and  _362
REMARK  151  A    between atoms: _361  and  _364
REMARK  152  A    between atoms: _364  and  _365
REMARK  153  A    between atoms: _375  and  _377
REMARK  154  A    between atoms: _377  and  _378
REMARK  155  A    between atoms: _377  and  _380
REMARK  156  A    between atoms: _380  and  _381
REMARK  157  A    between atoms: _384  and  _386
REMARK  158  A    between atoms: _386  and  _387
REMARK  159  A    between atoms: _386  and  _389
REMARK  160  A    between atoms: _391  and  _393
REMARK  161  A    between atoms: _393  and  _394
REMARK  162  A    between atoms: _393  and  _396
REMARK  163  A    between atoms: _396  and  _397
REMARK  164  A    between atoms: _402  and  _403
REMARK  165  A    between atoms: _405  and  _407
REMARK  166  A    between atoms: _407  and  _408
REMARK  167  A    between atoms: _407  and  _410
REMARK  168  A    between atoms: _410  and  _411
REMARK  169  A    between atoms: _411  and  _412
REMARK  170  A    between atoms: _412  and  _413
REMARK  171  A    between atoms: _413  and  _414
REMARK  172  A    between atoms: _418  and  _420
REMARK  173  A    between atoms: _420  and  _421
REMARK  174  A    between atoms: _420  and  _423
REMARK  175  A    between atoms: _423  and  _424
REMARK  176  A    between atoms: _429  and  _430
REMARK  177  A    between atoms: _432  and  _434
REMARK  178  A    between atoms: _434  and  _435
REMARK  179  A    between atoms: _434  and  _437
REMARK  180  A    between atoms: _437  and  _438
REMARK  181  A    between atoms: _438  and  _439
REMARK  182  A    between atoms: _439  and  _440
REMARK  183  A    between atoms: _449  and  _451
REMARK  184  A    between atoms: _451  and  _452
REMARK  185  A    between atoms: _451  and  _454
REMARK  186  A    between atoms: _457  and  _459
REMARK  187  A    between atoms: _459  and  _460
REMARK  188  A    between atoms: _459  and  _462
REMARK  189  A    between atoms: _462  and  _463
REMARK  190  A    between atoms: _466  and  _468
REMARK  191  A    between atoms: _468  and  _469
REMARK  192  A    between atoms: _468  and  _471
REMARK  193  A    between atoms: _474  and  _476
REMARK  194  A    between atoms: _476  and  _477
REMARK  195  A    between atoms: _476  and  _479
REMARK  196  A    between atoms: _479  and  _480
REMARK  197  A    between atoms: _483  and  _485
REMARK  198  A    between atoms: _485  and  _486
REMARK  199  A    between atoms: _489  and  _491
REMARK  200  A    between atoms: _491  and  _492
REMARK  201  A    between atoms: _494  and  _496
REMARK  202  A    between atoms: _496  and  _497
REMARK  203  A    between atoms: _496  and  _499
REMARK  204  A    between atoms: _499  and  _500
REMARK  205  A    between atoms: _505  and  _507
REMARK  206  A    between atoms: _507  and  _508
REMARK  207  A    between atoms: _507  and  _510
REMARK  208  A    between atoms: _510  and  _511
REMARK  209  A    between atoms: _513  and  _515
REMARK  210  A    between atoms: _515  and  _516
REMARK  211  A    between atoms: _515  and  _518
REMARK  212  A    between atoms: _518  and  _519
REMARK  213  A    between atoms: _522  and  _524
REMARK  214  A    between atoms: _524  and  _525
REMARK  215  A    between atoms: _524  and  _527
REMARK  216  A    between atoms: _527  and  _528
REMARK  217  A    between atoms: _531  and  _533
REMARK  218  A    between atoms: _533  and  _534
REMARK  219  A    between atoms: _533  and  _536
REMARK  220  A    between atoms: _536  and  _537
REMARK  221  A    between atoms: _540  and  _542
REMARK  222  A    between atoms: _542  and  _543
REMARK  223  A    between atoms: _542  and  _545
REMARK  224  A    between atoms: _545  and  _546
REMARK  225  A    between atoms: _549  and  _551
REMARK  226  A    between atoms: _551  and  _552
REMARK  227  A    between atoms: _551  and  _554
REMARK  228  A    between atoms: _554  and  _555
REMARK  229  A    between atoms: _555  and  _556
REMARK  230  A    between atoms: _561  and  _563
REMARK  231  A    between atoms: _563  and  _564
REMARK  232  A    between atoms: _563  and  _566
REMARK  233  A    between atoms: _566  and  _567
REMARK  234  A    between atoms: _570  and  _572
REMARK  235  A    between atoms: _572  and  _573
REMARK  236  A    between atoms: _572  and  _575
REMARK  237  A    between atoms: _575  and  _576
REMARK  238  A    between atoms: _581  and  _583
REMARK  239  A    between atoms: _583  and  _584
REMARK  240  A    between atoms: _583  and  _586
REMARK  241  A    between atoms: _586  and  _587
REMARK  242  A    between atoms: _589  and  _591
REMARK  243  A    between atoms: _591  and  _592
REMARK  244  A    between atoms: _591  and  _594
REMARK  245  A    between atoms: _594  and  _595
REMARK  246  A    between atoms: _595  and  _596
REMARK  247  A    between atoms: _601  and  _603
REMARK  248  A    between atoms: _603  and  _604
REMARK  249  A    between atoms: _603  and  _606
REMARK  250  A    between atoms: _606  and  _607
REMARK  251  A    between atoms: _612  and  _613
REMARK  252  A    between atoms: _615  and  _617
REMARK  253  A    between atoms: _617  and  _618
REMARK  254  A    between atoms: _617  and  _620
REMARK  255  A    between atoms: _620  and  _621
REMARK  256  A    between atoms: _624  and  _626
REMARK  257  A    between atoms: _626  and  _627
REMARK  258  A    between atoms: _626  and  _629
REMARK  259  A    between atoms: _629  and  _630
REMARK  260  A    between atoms: _630  and  _631
REMARK  261  A    between atoms: _631  and  _632
REMARK  262  A    between atoms: _632  and  _633
REMARK  263  A    between atoms: _637  and  _639
REMARK  264  A    between atoms: _639  and  _640
REMARK  265  A    between atoms: _639  and  _642
REMARK  266  A    between atoms: _642  and  _643
REMARK  267  A    between atoms: _646  and  _648
REMARK  268  A    between atoms: _648  and  _649
REMARK  269  A    between atoms: _648  and  _651
REMARK  270  A    between atoms: _651  and  _652
REMARK  271  A    between atoms: _655  and  _657
REMARK  272  A    between atoms: _657  and  _658
REMARK  273  A    between atoms: _657  and  _660
REMARK  274  A    between atoms: _663  and  _665
REMARK  275  A    between atoms: _665  and  _666
REMARK  276  A    between atoms: _665  and  _668
REMARK  277  A    between atoms: _668  and  _669
REMARK                            x       y       z     vdW  Elec       q    Type
REMARK                         _______ _______ _______ _____ _____    ______ ____
ROOT
ATOM      1  CA  VAL A   1       0.091  20.189  36.540  0.00  0.00    +0.133 C 
ENDROOT
BRANCH   1   2
ATOM      2  CB  VAL A   1       0.634  20.725  35.202  0.00  0.00    +0.023 C 
ATOM      3  CG2 VAL A   1       0.828  22.241  35.272  0.00  0.00    +0.002 C 
ATOM      4  CG1 VAL A   1       1.959  20.045  34.891  0.00  0.00    +0.002 C 
ENDBRANCH   1   2
BRANCH   1   5
ATOM      5  N   VAL A   1      -0.417  18.833  36.388  0.00  0.00    -0.239 NA
ATOM      6  H   VAL A   1      -0.440  18.397  35.444  0.00  0.00    +0.142 HD
ENDBRANCH   1   5
BRANCH   1   7
ATOM      7  C   VAL A   1      -1.018  21.103  37.047  0.00  0.00    +0.224 C 
ATOM      8  O   VAL A   1      -0.802  21.915  37.946  0.00  0.00    -0.287 OA
ENDBRANCH   1   7
TORSDOF 3
REMARK  Name = ../refined-set-2016/1s19/1s19_pocket.pdb
REMARK  277 active torsions:
REMARK  status: ('A' for Active; 'I' for Inactive)
REMARK    1  A    between atoms: _1  and  _3
REMARK    2  A    between atoms: _3  and  _4
REMARK    3  A    between atoms: _3  and  _6
REMARK    4  A    between atoms: _6  and  _7
REMARK    5  A    between atoms: _10  and  _12
REMARK    6  A    between atoms: _12  and  _13
REMARK    7  A    between atoms: _12  and  _15
REMARK    8  A    between atoms: _15  and  _16
REMARK    9  A    between atoms: _21  and  _22
REMARK   10  A    between atoms: _24  and  _26
REMARK   11  A    between atoms: _26  and  _27
REMARK   12  A    between atoms: _26  and  _29
REMARK   13  A    between atoms: _29  and  _30
REMARK   14  A    between atoms: _33  and  _35
REMARK   15  A    between atoms: _35  and  _36
REMARK   16  A    between atoms: _35  and  _38
REMARK   17  A    between atoms: _38  and  _39
REMARK   18  A    between atoms: _44  and  _45
REMARK   19  A    between atoms: _47  and  _49
REMARK   20  A    between atoms: _49  and  _50
REMARK   21  A    between atoms: _49  and  _52
REMARK   22  A    between atoms: _52  and  _53
REMARK   23  A    between atoms: _59  and  _61
REMARK   24  A    between atoms: _61  and  _62
REMARK   25  A    between atoms: _61  and  _64
REMARK   26  A    between atoms: _64  and  _65
REMARK   27  A    between atoms: _71  and  _73
REMARK   28  A    between atoms: _73  and  _74
REMARK   29  A    between atoms: _73  and  _76
REMARK   30  A    between atoms: _76  and  _77
REMARK   31  A    between atoms: _77  and  _78
REMARK   32  A    between atoms: _78  and  _79
REMARK   33  A    between atoms: _88  and  _90
REMARK   34  A    between atoms: _90  and  _91
REMARK   35  A    between atoms: _90  and  _93
REMARK   36  A    between atoms: _93  and  _94
REMARK   37  A    between atoms: _94  and  _95
REMARK   38  A    between atoms: _97  and  _99
REMARK   39  A    between atoms: _99  and  _100
REMARK   40  A    between atoms: _99  and  _102
REMARK   41  A    between atoms: _102  and  _103
REMARK   42  A    between atoms: _107  and  _108
REMARK   43  A    between atoms: _113  and  _115
REMARK   44  A    between atoms: _115  and  _116
REMARK   45  A    between atoms: _115  and  _118
REMARK   46  A    between atoms: _118  and  _119
REMARK   47  A    between atoms: _124  and  _126
REMARK   48  A    between atoms: _126  and  _127
REMARK   49  A    between atoms: _126  and  _129
REMARK   50  A    between atoms: _129  and  _130
REMARK   51  A    between atoms: _133  and  _135
REMARK   52  A    between atoms: _135  and  _136
REMARK   53  A    between atoms: _139  and  _141
REMARK   54  A    between atoms: _141  and  _142
REMARK   55  A    between atoms: _141  and  _144
REMARK   56  A    between atoms: _144  and  _145
REMARK   57  A    between atoms: _148  and  _150
REMARK   58  A    between atoms: _150  and  _151
REMARK   59  A    between atoms: _150  and  _153
REMARK   60  A    between atoms: _153  and  _154
REMARK   61  A    between atoms: _157  and  _159
REMARK   62  A    between atoms: _159  and  _160
REMARK   63  A    between atoms: _159  and  _162
REMARK   64  A    between atoms: _165  and  _167
REMARK   65  A    between atoms: _167  and  _168
REMARK   66  A    between atoms: _167  and  _170
REMARK   67  A    between atoms: _170  and  _171
REMARK   68  A    between atoms: _173  and  _175
REMARK   69  A    between atoms: _175  and  _176
REMARK   70  A    between atoms: _175  and  _178
REMARK   71  A    between atoms: _178  and  _179
REMARK   72  A    between atoms: _184  and  _185
REMARK   73  A    between atoms: _187  and  _189
REMARK   74  A    between atoms: _189  and  _190
REMARK   75  A    between atoms: _189  and  _192
REMARK   76  A    between atoms: _192  and  _193
REMARK   77  A    between atoms: _195  and  _197
REMARK   78  A    between atoms: _197  and  _198
REMARK   79  A    between atoms: _197  and  _200
REMARK   80  A    between atoms: _200  and  _201
REMARK   81  A    between atoms: _204  and  _206
REMARK   82  A    between atoms: _206  and  _207
REMARK   83  A    between atoms: _206  and  _209
REMARK   84  A    between atoms: _209  and  _210
REMARK   85  A    between atoms: _210  and  _211
REMARK   86  A    between atoms: _211  and  _212
REMARK   87  A    between atoms: _212  and  _213
REMARK   88  A    between atoms: _217  and  _219
REMARK   89  A    between atoms: _219  and  _220
REMARK   90  A    between atoms: _219  and  _222
REMARK   91  A    between atoms: _225  and  _227
REMARK   92  A    between atoms: _227  and  _228
REMARK   93  A    between atoms: _231  and  _233
REMARK   94  A    between atoms: _233  and  _234
REMARK   95  A    between atoms: _233  and  _236
REMARK   96  A    between atoms: _236  and  _237
REMARK   97  A    between atoms: _240  and  _242
REMARK   98  A    between atoms: _242  and  _243
REMARK   99  A    between atoms: _242  and  _245
REMARK  100  A    between atoms: _245  and  _246
REMARK  101  A    between atoms: _246  and  _247
REMARK  102  A    between atoms: _250  and  _252
REMARK  103  A    between atoms: _252  and  _253
REMARK  104  A    between atoms: _252  and  _255
REMARK  105  A    between atoms: _258  and  _260
REMARK  106  A    between atoms: _260  and  _261
REMARK  107  A    between atoms: _260  and  _263
REMARK  108  A    between atoms: _263  and  _264
REMARK  109  A    between atoms: _267  and  _269
REMARK  110  A    between atoms: _269  and  _270
REMARK  111  A    between atoms: _269  and  _272
REMARK  112  A    between atoms: _272  and  _273
REMARK  113  A    between atoms: _273  and  _274
REMARK  114  A    between atoms: _276  and  _278
REMARK  115  A    between atoms: _278  and  _279
REMARK  116  A    between atoms: _278  and  _281
REMARK  117  A    between atoms: _281  and  _282
REMARK  118  A    between atoms: _285  and  _287
REMARK  119  A    between atoms: _287  and  _288
REMARK  120  A    between atoms: _287  and  _290
REMARK  121  A    between atoms: _290  and  _291
REMARK  122  A    between atoms: _291  and  _292
REMARK  123  A    between atoms: _292  and  _293
REMARK  124  A    between atoms: _302  and  _304
REMARK  125  A    between atoms: _304  and  _305
REMARK  126  A    between atoms: _304  and  _307
REMARK  127  A    between atoms: _307  and  _308
REMARK  128  A    between atoms: _310  and  _312
REMARK  129  A    between atoms: _312  and  _313
REMARK  130  A    between atoms: _312  and  _315
REMARK  131  A    between atoms: _315  and  _316
REMARK  132  A    between atoms: _321  and  _323
REMARK  133  A    between atoms: _323  and  _324
REMARK  134  A    between atoms: _323  and  _326
REMARK  135  A    between atoms: _326  and  _327
REMARK  136  A    between atoms: _327  and  _328
REMARK  137  A    between atoms: _331  and  _333
REMARK  138  A    between atoms: _333  and  _334
REMARK  139  A    between atoms: _333  and  _336
REMARK  140  A    between atoms: _336  and  _337
REMARK  141  A    between atoms: _339  and  _341
REMARK  142  A    between atoms: _341  and  _342
REMARK  143  A    between atoms: _341  and  _344
REMARK  144  A    between atoms: _344  and  _345
REMARK  145  A    between atoms: _351  and  _353
REMARK  146  A    between atoms: _353  and  _354
REMARK  147  A    between atoms: _353  and  _356
REMARK  148  A    between atoms: _356  and  _357
REMARK  149  A    between atoms: _359  and  _361
REMARK  150  A    between atoms: _361  and  _362
REMARK  151  A    between atoms: _361  and  _364
REMARK  152  A    between atoms: _364  and  _365
REMARK  153  A    between atoms: _375  and  _377
REMARK  154  A    between atoms: _377  and  _378
REMARK  155  A    between atoms: _377  and  _380
REMARK  156  A    between atoms: _380  and  _381
REMARK  157  A    between atoms: _384  and  _386
REMARK  158  A    between atoms: _386  and  _387
REMARK  159  A    between atoms: _386  and  _389
REMARK  160  A    between atoms: _391  and  _393
REMARK  161  A    between atoms: _393  and  _394
REMARK  162  A    between atoms: _393  and  _396
REMARK  163  A    between atoms: _396  and  _397
REMARK  164  A    between atoms: _402  and  _403
REMARK  165  A    between atoms: _405  and  _407
REMARK  166  A    between atoms: _407  and  _408
REMARK  167  A    between atoms: _407  and  _410
REMARK  168  A    between atoms: _410  and  _411
REMARK  169  A    between atoms: _411  and  _412
REMARK  170  A    between atoms: _412  and  _413
REMARK  171  A    between atoms: _413  and  _414
REMARK  172  A    between atoms: _418  and  _420
REMARK  173  A    between atoms: _420  and  _421
REMARK  174  A    between atoms: _420  and  _423
REMARK  175  A    between atoms: _423  and  _424
REMARK  176  A    between atoms: _429  and  _430
REMARK  177  A    between atoms: _432  and  _434
REMARK  178  A    between atoms: _434  and  _435
REMARK  179  A    between atoms: _434  and  _437
REMARK  180  A    between atoms: _437  and  _438
REMARK  181  A    between atoms: _438  and  _439
REMARK  182  A    between atoms: _439  and  _440
REMARK  183  A    between atoms: _449  and  _451
REMARK  184  A    between atoms: _451  and  _452
REMARK  185  A    between atoms: _451  and  _454
REMARK  186  A    between atoms: _457  and  _459
REMARK  187  A    between atoms: _459  and  _460
REMARK  188  A    between atoms: _459  and  _462
REMARK  189  A    between atoms: _462  and  _463
REMARK  190  A    between atoms: _466  and  _468
REMARK  191  A    between atoms: _468  and  _469
REMARK  192  A    between atoms: _468  and  _471
REMARK  193  A    between atoms: _474  and  _476
REMARK  194  A    between atoms: _476  and  _477
REMARK  195  A    between atoms: _476  and  _479
REMARK  196  A    between atoms: _479  and  _480
REMARK  197  A    between atoms: _483  and  _485
REMARK  198  A    between atoms: _485  and  _486
REMARK  199  A    between atoms: _489  and  _491
REMARK  200  A    between atoms: _491  and  _492
REMARK  201  A    between atoms: _494  and  _496
REMARK  202  A    between atoms: _496  and  _497
REMARK  203  A    between atoms: _496  and  _499
REMARK  204  A    between atoms: _499  and  _500
REMARK  205  A    between atoms: _505  and  _507
REMARK  206  A    between atoms: _507  and  _508
REMARK  207  A    between atoms: _507  and  _510
REMARK  208  A    between atoms: _510  and  _511
REMARK  209  A    between atoms: _513  and  _515
REMARK  210  A    between atoms: _515  and  _516
REMARK  211  A    between atoms: _515  and  _518
REMARK  212  A    between atoms: _518  and  _519
REMARK  213  A    between atoms: _522  and  _524
REMARK  214  A    between atoms: _524  and  _525
REMARK  215  A    between atoms: _524  and  _527
REMARK  216  A    between atoms: _527  and  _528
REMARK  217  A    between atoms: _531  and  _533
REMARK  218  A    between atoms: _533  and  _534
REMARK  219  A    between atoms: _533  and  _536
REMARK  220  A    between atoms: _536  and  _537
REMARK  221  A    between atoms: _540  and  _542
REMARK  222  A    between atoms: _542  and  _543
REMARK  223  A    between atoms: _542  and  _545
REMARK  224  A    between atoms: _545  and  _546
REMARK  225  A    between atoms: _549  and  _551
REMARK  226  A    between atoms: _551  and  _552
REMARK  227  A    between atoms: _551  and  _554
REMARK  228  A    between atoms: _554  and  _555
REMARK  229  A    between atoms: _555  and  _556
REMARK  230  A    between atoms: _561  and  _563
REMARK  231  A    between atoms: _563  and  _564
REMARK  232  A    between atoms: _563  and  _566
REMARK  233  A    between atoms: _566  and  _567
REMARK  234  A    between atoms: _570  and  _572
REMARK  235  A    between atoms: _572  and  _573
REMARK  236  A    between atoms: _572  and  _575
REMARK  237  A    between atoms: _575  and  _576
REMARK  238  A    between atoms: _581  and  _583
REMARK  239  A    between atoms: _583  and  _584
REMARK  240  A    between atoms: _583  and  _586
REMARK  241  A    between atoms: _586  and  _587
REMARK  242  A    between atoms: _589  and  _591
REMARK  243  A    between atoms: _591  and  _592
REMARK  244  A    between atoms: _591  and  _594
REMARK  245  A    between atoms: _594  and  _595
REMARK  246  A    between atoms: _595  and  _596
REMARK  247  A    between atoms: _601  and  _603
REMARK  248  A    between atoms: _603  and  _604
REMARK  249  A    between atoms: _603  and  _606
REMARK  250  A    between atoms: _606  and  _607
REMARK  251  A    between atoms: _612  and  _613
REMARK  252  A    between atoms: _615  and  _617
REMARK  253  A    between atoms: _617  and  _618
REMARK  254  A    between atoms: _617  and  _620
REMARK  255  A    between atoms: _620  and  _621
REMARK  256  A    between atoms: _624  and  _626
REMARK  257  A    between atoms: _626  and  _627
REMARK  258  A    between atoms: _626  and  _629
REMARK  259  A    between atoms: _629  and  _630
REMARK  260  A    between atoms: _630  and  _631
REMARK  261  A    between atoms: _631  and  _632
REMARK  262  A    between atoms: _632  and  _633
REMARK  263  A    between atoms: _637  and  _639
REMARK  264  A    between atoms: _639  and  _640
REMARK  265  A    between atoms: _639  and  _642
REMARK  266  A    between atoms: _642  and  _643
REMARK  267  A    between atoms: _646  and  _648
REMARK  268  A    between atoms: _648  and  _649
REMARK  269  A    between atoms: _648  and  _651
REMARK  270  A    between atoms: _651  and  _652
REMARK  271  A    between atoms: _655  and  _657
REMARK  272  A    between atoms: _657  and  _658
REMARK  273  A    between atoms: _657  and  _660
REMARK  274  A    between atoms: _663  and  _665
REMARK  275  A    between atoms: _665  and  _666
REMARK  276  A    between atoms: _665  and  _668
REMARK  277  A    between atoms: _668  and  _669
REMARK                            x       y       z     vdW  Elec       q    Type
REMARK                         _______ _______ _______ _____ _____    ______ ____
ROOT
ATOM      1  CB  PHE A   1       0.428  24.789  39.318  0.00  0.00    +0.051 C 
ENDROOT
BRANCH   1   2
ATOM      2  CG  PHE A   1       1.805  24.197  39.207  0.00  0.00    -0.020 A 
ATOM      3  CD2 PHE A   1       2.539  23.887  40.349  0.00  0.00    -0.004 A 
ATOM      4  CE2 PHE A   1       3.808  23.331  40.253  0.00  0.00    -0.000 A 
ATOM      5  CZ  PHE A   1       4.358  23.077  39.004  0.00  0.00    -0.000 A 
ATOM      6  CE1 PHE A   1       3.638  23.383  37.855  0.00  0.00    -0.000 A 
ATOM      7  CD1 PHE A   1       2.367  23.941  37.961  0.00  0.00    -0.004 A 
ENDBRANCH   1   2
BRANCH   1   8
ATOM      8  CA  PHE A   1      -0.308  24.394  40.602  0.00  0.00    +0.137 C 
BRANCH   8   9
ATOM      9  N   PHE A   1      -0.481  22.947  40.646  0.00  0.00    -0.239 NA
ATOM     10  H   PHE A   1      -0.719  22.429  39.776  0.00  0.00    +0.142 HD
ENDBRANCH   8   9
BRANCH   8  11
ATOM     11  C   PHE A   1      -1.612  25.171  40.713  0.00  0.00    +0.224 C 
ATOM     12  O   PHE A   1      -1.599  26.369  40.983  0.00  0.00    -0.287 OA
ENDBRANCH   8  11
ENDBRANCH   1   8
TORSDOF 4
REMARK  Name = ../refined-set-2016/1s19/1s19_pocket.pdb
REMARK  277 active torsions:
REMARK  status: ('A' for Active; 'I' for Inactive)
REMARK    1  A    between atoms: _1  and  _3
REMARK    2  A    between atoms: _3  and  _4
REMARK    3  A    between atoms: _3  and  _6
REMARK    4  A    between atoms: _6  and  _7
REMARK    5  A    between atoms: _10  and  _12
REMARK    6  A    between atoms: _12  and  _13
REMARK    7  A    between atoms: _12  and  _15
REMARK    8  A    between atoms: _15  and  _16
REMARK    9  A    between atoms: _21  and  _22
REMARK   10  A    between atoms: _24  and  _26
REMARK   11  A    between atoms: _26  and  _27
REMARK   12  A    between atoms: _26  and  _29
REMARK   13  A    between atoms: _29  and  _30
REMARK   14  A    between atoms: _33  and  _35
REMARK   15  A    between atoms: _35  and  _36
REMARK   16  A    between atoms: _35  and  _38
REMARK   17  A    between atoms: _38  and  _39
REMARK   18  A    between atoms: _44  and  _45
REMARK   19  A    between atoms: _47  and  _49
REMARK   20  A    between atoms: _49  and  _50
REMARK   21  A    between atoms: _49  and  _52
REMARK   22  A    between atoms: _52  and  _53
REMARK   23  A    between atoms: _59  and  _61
REMARK   24  A    between atoms: _61  and  _62
REMARK   25  A    between atoms: _61  and  _64
REMARK   26  A    between atoms: _64  and  _65
REMARK   27  A    between atoms: _71  and  _73
REMARK   28  A    between atoms: _73  and  _74
REMARK   29  A    between atoms: _73  and  _76
REMARK   30  A    between atoms: _76  and  _77
REMARK   31  A    between atoms: _77  and  _78
REMARK   32  A    between atoms: _78  and  _79
REMARK   33  A    between atoms: _88  and  _90
REMARK   34  A    between atoms: _90  and  _91
REMARK   35  A    between atoms: _90  and  _93
REMARK   36  A    between atoms: _93  and  _94
REMARK   37  A    between atoms: _94  and  _95
REMARK   38  A    between atoms: _97  and  _99
REMARK   39  A    between atoms: _99  and  _100
REMARK   40  A    between atoms: _99  and  _102
REMARK   41  A    between atoms: _102  and  _103
REMARK   42  A    between atoms: _107  and  _108
REMARK   43  A    between atoms: _113  and  _115
REMARK   44  A    between atoms: _115  and  _116
REMARK   45  A    between atoms: _115  and  _118
REMARK   46  A    between atoms: _118  and  _119
REMARK   47  A    between atoms: _124  and  _126
REMARK   48  A    between atoms: _126  and  _127
REMARK   49  A    between atoms: _126  and  _129
REMARK   50  A    between atoms: _129  and  _130
REMARK   51  A    between atoms: _133  and  _135
REMARK   52  A    between atoms: _135  and  _136
REMARK   53  A    between atoms: _139  and  _141
REMARK   54  A    between atoms: _141  and  _142
REMARK   55  A    between atoms: _141  and  _144
REMARK   56  A    between atoms: _144  and  _145
REMARK   57  A    between atoms: _148  and  _150
REMARK   58  A    between atoms: _150  and  _151
REMARK   59  A    between atoms: _150  and  _153
REMARK   60  A    between atoms: _153  and  _154
REMARK   61  A    between atoms: _157  and  _159
REMARK   62  A    between atoms: _159  and  _160
REMARK   63  A    between atoms: _159  and  _162
REMARK   64  A    between atoms: _165  and  _167
REMARK   65  A    between atoms: _167  and  _168
REMARK   66  A    between atoms: _167  and  _170
REMARK   67  A    between atoms: _170  and  _171
REMARK   68  A    between atoms: _173  and  _175
REMARK   69  A    between atoms: _175  and  _176
REMARK   70  A    between atoms: _175  and  _178
REMARK   71  A    between atoms: _178  and  _179
REMARK   72  A    between atoms: _184  and  _185
REMARK   73  A    between atoms: _187  and  _189
REMARK   74  A    between atoms: _189  and  _190
REMARK   75  A    between atoms: _189  and  _192
REMARK   76  A    between atoms: _192  and  _193
REMARK   77  A    between atoms: _195  and  _197
REMARK   78  A    between atoms: _197  and  _198
REMARK   79  A    between atoms: _197  and  _200
REMARK   80  A    between atoms: _200  and  _201
REMARK   81  A    between atoms: _204  and  _206
REMARK   82  A    between atoms: _206  and  _207
REMARK   83  A    between atoms: _206  and  _209
REMARK   84  A    between atoms: _209  and  _210
REMARK   85  A    between atoms: _210  and  _211
REMARK   86  A    between atoms: _211  and  _212
REMARK   87  A    between atoms: _212  and  _213
REMARK   88  A    between atoms: _217  and  _219
REMARK   89  A    between atoms: _219  and  _220
REMARK   90  A    between atoms: _219  and  _222
REMARK   91  A    between atoms: _225  and  _227
REMARK   92  A    between atoms: _227  and  _228
REMARK   93  A    between atoms: _231  and  _233
REMARK   94  A    between atoms: _233  and  _234
REMARK   95  A    between atoms: _233  and  _236
REMARK   96  A    between atoms: _236  and  _237
REMARK   97  A    between atoms: _240  and  _242
REMARK   98  A    between atoms: _242  and  _243
REMARK   99  A    between atoms: _242  and  _245
REMARK  100  A    between atoms: _245  and  _246
REMARK  101  A    between atoms: _246  and  _247
REMARK  102  A    between atoms: _250  and  _252
REMARK  103  A    between atoms: _252  and  _253
REMARK  104  A    between atoms: _252  and  _255
REMARK  105  A    between atoms: _258  and  _260
REMARK  106  A    between atoms: _260  and  _261
REMARK  107  A    between atoms: _260  and  _263
REMARK  108  A    between atoms: _263  and  _264
REMARK  109  A    between atoms: _267  and  _269
REMARK  110  A    between atoms: _269  and  _270
REMARK  111  A    between atoms: _269  and  _272
REMARK  112  A    between atoms: _272  and  _273
REMARK  113  A    between atoms: _273  and  _274
REMARK  114  A    between atoms: _276  and  _278
REMARK  115  A    between atoms: _278  and  _279
REMARK  116  A    between atoms: _278  and  _281
REMARK  117  A    between atoms: _281  and  _282
REMARK  118  A    between atoms: _285  and  _287
REMARK  119  A    between atoms: _287  and  _288
REMARK  120  A    between atoms: _287  and  _290
REMARK  121  A    between atoms: _290  and  _291
REMARK  122  A    between atoms: _291  and  _292
REMARK  123  A    between atoms: _292  and  _293
REMARK  124  A    between atoms: _302  and  _304
REMARK  125  A    between atoms: _304  and  _305
REMARK  126  A    between atoms: _304  and  _307
REMARK  127  A    between atoms: _307  and  _308
REMARK  128  A    between atoms: _310  and  _312
REMARK  129  A    between atoms: _312  and  _313
REMARK  130  A    between atoms: _312  and  _315
REMARK  131  A    between atoms: _315  and  _316
REMARK  132  A    between atoms: _321  and  _323
REMARK  133  A    between atoms: _323  and  _324
REMARK  134  A    between atoms: _323  and  _326
REMARK  135  A    between atoms: _326  and  _327
REMARK  136  A    between atoms: _327  and  _328
REMARK  137  A    between atoms: _331  and  _333
REMARK  138  A    between atoms: _333  and  _334
REMARK  139  A    between atoms: _333  and  _336
REMARK  140  A    between atoms: _336  and  _337
REMARK  141  A    between atoms: _339  and  _341
REMARK  142  A    between atoms: _341  and  _342
REMARK  143  A    between atoms: _341  and  _344
REMARK  144  A    between atoms: _344  and  _345
REMARK  145  A    between atoms: _351  and  _353
REMARK  146  A    between atoms: _353  and  _354
REMARK  147  A    between atoms: _353  and  _356
REMARK  148  A    between atoms: _356  and  _357
REMARK  149  A    between atoms: _359  and  _361
REMARK  150  A    between atoms: _361  and  _362
REMARK  151  A    between atoms: _361  and  _364
REMARK  152  A    between atoms: _364  and  _365
REMARK  153  A    between atoms: _375  and  _377
REMARK  154  A    between atoms: _377  and  _378
REMARK  155  A    between atoms: _377  and  _380
REMARK  156  A    between atoms: _380  and  _381
REMARK  157  A    between atoms: _384  and  _386
REMARK  158  A    between atoms: _386  and  _387
REMARK  159  A    between atoms: _386  and  _389
REMARK  160  A    between atoms: _391  and  _393
REMARK  161  A    between atoms: _393  and  _394
REMARK  162  A    between atoms: _393  and  _396
REMARK  163  A    between atoms: _396  and  _397
REMARK  164  A    between atoms: _402  and  _403
REMARK  165  A    between atoms: _405  and  _407
REMARK  166  A    between atoms: _407  and  _408
REMARK  167  A    between atoms: _407  and  _410
REMARK  168  A    between atoms: _410  and  _411
REMARK  169  A    between atoms: _411  and  _412
REMARK  170  A    between atoms: _412  and  _413
REMARK  171  A    between atoms: _413  and  _414
REMARK  172  A    between atoms: _418  and  _420
REMARK  173  A    between atoms: _420  and  _421
REMARK  174  A    between atoms: _420  and  _423
REMARK  175  A    between atoms: _423  and  _424
REMARK  176  A    between atoms: _429  and  _430
REMARK  177  A    between atoms: _432  and  _434
REMARK  178  A    between atoms: _434  and  _435
REMARK  179  A    between atoms: _434  and  _437
REMARK  180  A    between atoms: _437  and  _438
REMARK  181  A    between atoms: _438  and  _439
REMARK  182  A    between atoms: _439  and  _440
REMARK  183  A    between atoms: _449  and  _451
REMARK  184  A    between atoms: _451  and  _452
REMARK  185  A    between atoms: _451  and  _454
REMARK  186  A    between atoms: _457  and  _459
REMARK  187  A    between atoms: _459  and  _460
REMARK  188  A    between atoms: _459  and  _462
REMARK  189  A    between atoms: _462  and  _463
REMARK  190  A    between atoms: _466  and  _468
REMARK  191  A    between atoms: _468  and  _469
REMARK  192  A    between atoms: _468  and  _471
REMARK  193  A    between atoms: _474  and  _476
REMARK  194  A    between atoms: _476  and  _477
REMARK  195  A    between atoms: _476  and  _479
REMARK  196  A    between atoms: _479  and  _480
REMARK  197  A    between atoms: _483  and  _485
REMARK  198  A    between atoms: _485  and  _486
REMARK  199  A    between atoms: _489  and  _491
REMARK  200  A    between atoms: _491  and  _492
REMARK  201  A    between atoms: _494  and  _496
REMARK  202  A    between atoms: _496  and  _497
REMARK  203  A    between atoms: _496  and  _499
REMARK  204  A    between atoms: _499  and  _500
REMARK  205  A    between atoms: _505  and  _507
REMARK  206  A    between atoms: _507  and  _508
REMARK  207  A    between atoms: _507  and  _510
REMARK  208  A    between atoms: _510  and  _511
REMARK  209  A    between atoms: _513  and  _515
REMARK  210  A    between atoms: _515  and  _516
REMARK  211  A    between atoms: _515  and  _518
REMARK  212  A    between atoms: _518  and  _519
REMARK  213  A    between atoms: _522  and  _524
REMARK  214  A    between atoms: _524  and  _525
REMARK  215  A    between atoms: _524  and  _527
REMARK  216  A    between atoms: _527  and  _528
REMARK  217  A    between atoms: _531  and  _533
REMARK  218  A    between atoms: _533  and  _534
REMARK  219  A    between atoms: _533  and  _536
REMARK  220  A    between atoms: _536  and  _537
REMARK  221  A    between atoms: _540  and  _542
REMARK  222  A    between atoms: _542  and  _543
REMARK  223  A    between atoms: _542  and  _545
REMARK  224  A    between atoms: _545  and  _546
REMARK  225  A    between atoms: _549  and  _551
REMARK  226  A    between atoms: _551  and  _552
REMARK  227  A    between atoms: _551  and  _554
REMARK  228  A    between atoms: _554  and  _555
REMARK  229  A    between atoms: _555  and  _556
REMARK  230  A    between atoms: _561  and  _563
REMARK  231  A    between atoms: _563  and  _564
REMARK  232  A    between atoms: _563  and  _566
REMARK  233  A    between atoms: _566  and  _567
REMARK  234  A    between atoms: _570  and  _572
REMARK  235  A    between atoms: _572  and  _573
REMARK  236  A    between atoms: _572  and  _575
REMARK  237  A    between atoms: _575  and  _576
REMARK  238  A    between atoms: _581  and  _583
REMARK  239  A    between atoms: _583  and  _584
REMARK  240  A    between atoms: _583  and  _586
REMARK  241  A    between atoms: _586  and  _587
REMARK  242  A    between atoms: _589  and  _591
REMARK  243  A    between atoms: _591  and  _592
REMARK  244  A    between atoms: _591  and  _594
REMARK  245  A    between atoms: _594  and  _595
REMARK  246  A    between atoms: _595  and  _596
REMARK  247  A    between atoms: _601  and  _603
REMARK  248  A    between atoms: _603  and  _604
REMARK  249  A    between atoms: _603  and  _606
REMARK  250  A    between atoms: _606  and  _607
REMARK  251  A    between atoms: _612  and  _613
REMARK  252  A    between atoms: _615  and  _617
REMARK  253  A    between atoms: _617  and  _618
REMARK  254  A    between atoms: _617  and  _620
REMARK  255  A    between atoms: _620  and  _621
REMARK  256  A    between atoms: _624  and  _626
REMARK  257  A    between atoms: _626  and  _627
REMARK  258  A    between atoms: _626  and  _629
REMARK  259  A    between atoms: _629  and  _630
REMARK  260  A    between atoms: _630  and  _631
REMARK  261  A    between atoms: _631  and  _632
REMARK  262  A    between atoms: _632  and  _633
REMARK  263  A    between atoms: _637  and  _639
REMARK  264  A    between atoms: _639  and  _640
REMARK  265  A    between atoms: _639  and  _642
REMARK  266  A    between atoms: _642  and  _643
REMARK  267  A    between atoms: _646  and  _648
REMARK  268  A    between atoms: _648  and  _649
REMARK  269  A    between atoms: _648  and  _651
REMARK  270  A    between atoms: _651  and  _652
REMARK  271  A    between atoms: _655  and  _657
REMARK  272  A    between atoms: _657  and  _658
REMARK  273  A    between atoms: _657  and  _660
REMARK  274  A    between atoms: _663  and  _665
REMARK  275  A    between atoms: _665  and  _666
REMARK  276  A    between atoms: _665  and  _668
REMARK  277  A    between atoms: _668  and  _669
REMARK                            x       y       z     vdW  Elec       q    Type
REMARK                         _______ _______ _______ _____ _____    ______ ____
ROOT
ATOM      1  O   HOH     1      13.778  10.275  34.944  0.00  0.00    +0.000 OA
ENDROOT
TORSDOF 0
REMARK  Name = ../refined-set-2016/1s19/1s19_pocket.pdb
REMARK  277 active torsions:
REMARK  status: ('A' for Active; 'I' for Inactive)
REMARK    1  A    between atoms: _1  and  _3
REMARK    2  A    between atoms: _3  and  _4
REMARK    3  A    between atoms: _3  and  _6
REMARK    4  A    between atoms: _6  and  _7
REMARK    5  A    between atoms: _10  and  _12
REMARK    6  A    between atoms: _12  and  _13
REMARK    7  A    between atoms: _12  and  _15
REMARK    8  A    between atoms: _15  and  _16
REMARK    9  A    between atoms: _21  and  _22
REMARK   10  A    between atoms: _24  and  _26
REMARK   11  A    between atoms: _26  and  _27
REMARK   12  A    between atoms: _26  and  _29
REMARK   13  A    between atoms: _29  and  _30
REMARK   14  A    between atoms: _33  and  _35
REMARK   15  A    between atoms: _35  and  _36
REMARK   16  A    between atoms: _35  and  _38
REMARK   17  A    between atoms: _38  and  _39
REMARK   18  A    between atoms: _44  and  _45
REMARK   19  A    between atoms: _47  and  _49
REMARK   20  A    between atoms: _49  and  _50
REMARK   21  A    between atoms: _49  and  _52
REMARK   22  A    between atoms: _52  and  _53
REMARK   23  A    between atoms: _59  and  _61
REMARK   24  A    between atoms: _61  and  _62
REMARK   25  A    between atoms: _61  and  _64
REMARK   26  A    between atoms: _64  and  _65
REMARK   27  A    between atoms: _71  and  _73
REMARK   28  A    between atoms: _73  and  _74
REMARK   29  A    between atoms: _73  and  _76
REMARK   30  A    between atoms: _76  and  _77
REMARK   31  A    between atoms: _77  and  _78
REMARK   32  A    between atoms: _78  and  _79
REMARK   33  A    between atoms: _88  and  _90
REMARK   34  A    between atoms: _90  and  _91
REMARK   35  A    between atoms: _90  and  _93
REMARK   36  A    between atoms: _93  and  _94
REMARK   37  A    between atoms: _94  and  _95
REMARK   38  A    between atoms: _97  and  _99
REMARK   39  A    between atoms: _99  and  _100
REMARK   40  A    between atoms: _99  and  _102
REMARK   41  A    between atoms: _102  and  _103
REMARK   42  A    between atoms: _107  and  _108
REMARK   43  A    between atoms: _113  and  _115
REMARK   44  A    between atoms: _115  and  _116
REMARK   45  A    between atoms: _115  and  _118
REMARK   46  A    between atoms: _118  and  _119
REMARK   47  A    between atoms: _124  and  _126
REMARK   48  A    between atoms: _126  and  _127
REMARK   49  A    between atoms: _126  and  _129
REMARK   50  A    between atoms: _129  and  _130
REMARK   51  A    between atoms: _133  and  _135
REMARK   52  A    between atoms: _135  and  _136
REMARK   53  A    between atoms: _139  and  _141
REMARK   54  A    between atoms: _141  and  _142
REMARK   55  A    between atoms: _141  and  _144
REMARK   56  A    between atoms: _144  and  _145
REMARK   57  A    between atoms: _148  and  _150
REMARK   58  A    between atoms: _150  and  _151
REMARK   59  A    between atoms: _150  and  _153
REMARK   60  A    between atoms: _153  and  _154
REMARK   61  A    between atoms: _157  and  _159
REMARK   62  A    between atoms: _159  and  _160
REMARK   63  A    between atoms: _159  and  _162
REMARK   64  A    between atoms: _165  and  _167
REMARK   65  A    between atoms: _167  and  _168
REMARK   66  A    between atoms: _167  and  _170
REMARK   67  A    between atoms: _170  and  _171
REMARK   68  A    between atoms: _173  and  _175
REMARK   69  A    between atoms: _175  and  _176
REMARK   70  A    between atoms: _175  and  _178
REMARK   71  A    between atoms: _178  and  _179
REMARK   72  A    between atoms: _184  and  _185
REMARK   73  A    between atoms: _187  and  _189
REMARK   74  A    between atoms: _189  and  _190
REMARK   75  A    between atoms: _189  and  _192
REMARK   76  A    between atoms: _192  and  _193
REMARK   77  A    between atoms: _195  and  _197
REMARK   78  A    between atoms: _197  and  _198
REMARK   79  A    between atoms: _197  and  _200
REMARK   80  A    between atoms: _200  and  _201
REMARK   81  A    between atoms: _204  and  _206
REMARK   82  A    between atoms: _206  and  _207
REMARK   83  A    between atoms: _206  and  _209
REMARK   84  A    between atoms: _209  and  _210
REMARK   85  A    between atoms: _210  and  _211
REMARK   86  A    between atoms: _211  and  _212
REMARK   87  A    between atoms: _212  and  _213
REMARK   88  A    between atoms: _217  and  _219
REMARK   89  A    between atoms: _219  and  _220
REMARK   90  A    between atoms: _219  and  _222
REMARK   91  A    between atoms: _225  and  _227
REMARK   92  A    between atoms: _227  and  _228
REMARK   93  A    between atoms: _231  and  _233
REMARK   94  A    between atoms: _233  and  _234
REMARK   95  A    between atoms: _233  and  _236
REMARK   96  A    between atoms: _236  and  _237
REMARK   97  A    between atoms: _240  and  _242
REMARK   98  A    between atoms: _242  and  _243
REMARK   99  A    between atoms: _242  and  _245
REMARK  100  A    between atoms: _245  and  _246
REMARK  101  A    between atoms: _246  and  _247
REMARK  102  A    between atoms: _250  and  _252
REMARK  103  A    between atoms: _252  and  _253
REMARK  104  A    between atoms: _252  and  _255
REMARK  105  A    between atoms: _258  and  _260
REMARK  106  A    between atoms: _260  and  _261
REMARK  107  A    between atoms: _260  and  _263
REMARK  108  A    between atoms: _263  and  _264
REMARK  109  A    between atoms: _267  and  _269
REMARK  110  A    between atoms: _269  and  _270
REMARK  111  A    between atoms: _269  and  _272
REMARK  112  A    between atoms: _272  and  _273
REMARK  113  A    between atoms: _273  and  _274
REMARK  114  A    between atoms: _276  and  _278
REMARK  115  A    between atoms: _278  and  _279
REMARK  116  A    between atoms: _278  and  _281
REMARK  117  A    between atoms: _281  and  _282
REMARK  118  A    between atoms: _285  and  _287
REMARK  119  A    between atoms: _287  and  _288
REMARK  120  A    between atoms: _287  and  _290
REMARK  121  A    between atoms: _290  and  _291
REMARK  122  A    between atoms: _291  and  _292
REMARK  123  A    between atoms: _292  and  _293
REMARK  124  A    between atoms: _302  and  _304
REMARK  125  A    between atoms: _304  and  _305
REMARK  126  A    between atoms: _304  and  _307
REMARK  127  A    between atoms: _307  and  _308
REMARK  128  A    between atoms: _310  and  _312
REMARK  129  A    between atoms: _312  and  _313
REMARK  130  A    between atoms: _312  and  _315
REMARK  131  A    between atoms: _315  and  _316
REMARK  132  A    between atoms: _321  and  _323
REMARK  133  A    between atoms: _323  and  _324
REMARK  134  A    between atoms: _323  and  _326
REMARK  135  A    between atoms: _326  and  _327
REMARK  136  A    between atoms: _327  and  _328
REMARK  137  A    between atoms: _331  and  _333
REMARK  138  A    between atoms: _333  and  _334
REMARK  139  A    between atoms: _333  and  _336
REMARK  140  A    between atoms: _336  and  _337
REMARK  141  A    between atoms: _339  and  _341
REMARK  142  A    between atoms: _341  and  _342
REMARK  143  A    between atoms: _341  and  _344
REMARK  144  A    between atoms: _344  and  _345
REMARK  145  A    between atoms: _351  and  _353
REMARK  146  A    between atoms: _353  and  _354
REMARK  147  A    between atoms: _353  and  _356
REMARK  148  A    between atoms: _356  and  _357
REMARK  149  A    between atoms: _359  and  _361
REMARK  150  A    between atoms: _361  and  _362
REMARK  151  A    between atoms: _361  and  _364
REMARK  152  A    between atoms: _364  and  _365
REMARK  153  A    between atoms: _375  and  _377
REMARK  154  A    between atoms: _377  and  _378
REMARK  155  A    between atoms: _377  and  _380
REMARK  156  A    between atoms: _380  and  _381
REMARK  157  A    between atoms: _384  and  _386
REMARK  158  A    between atoms: _386  and  _387
REMARK  159  A    between atoms: _386  and  _389
REMARK  160  A    between atoms: _391  and  _393
REMARK  161  A    between atoms: _393  and  _394
REMARK  162  A    between atoms: _393  and  _396
REMARK  163  A    between atoms: _396  and  _397
REMARK  164  A    between atoms: _402  and  _403
REMARK  165  A    between atoms: _405  and  _407
REMARK  166  A    between atoms: _407  and  _408
REMARK  167  A    between atoms: _407  and  _410
REMARK  168  A    between atoms: _410  and  _411
REMARK  169  A    between atoms: _411  and  _412
REMARK  170  A    between atoms: _412  and  _413
REMARK  171  A    between atoms: _413  and  _414
REMARK  172  A    between atoms: _418  and  _420
REMARK  173  A    between atoms: _420  and  _421
REMARK  174  A    between atoms: _420  and  _423
REMARK  175  A    between atoms: _423  and  _424
REMARK  176  A    between atoms: _429  and  _430
REMARK  177  A    between atoms: _432  and  _434
REMARK  178  A    between atoms: _434  and  _435
REMARK  179  A    between atoms: _434  and  _437
REMARK  180  A    between atoms: _437  and  _438
REMARK  181  A    between atoms: _438  and  _439
REMARK  182  A    between atoms: _439  and  _440
REMARK  183  A    between atoms: _449  and  _451
REMARK  184  A    between atoms: _451  and  _452
REMARK  185  A    between atoms: _451  and  _454
REMARK  186  A    between atoms: _457  and  _459
REMARK  187  A    between atoms: _459  and  _460
REMARK  188  A    between atoms: _459  and  _462
REMARK  189  A    between atoms: _462  and  _463
REMARK  190  A    between atoms: _466  and  _468
REMARK  191  A    between atoms: _468  and  _469
REMARK  192  A    between atoms: _468  and  _471
REMARK  193  A    between atoms: _474  and  _476
REMARK  194  A    between atoms: _476  and  _477
REMARK  195  A    between atoms: _476  and  _479
REMARK  196  A    between atoms: _479  and  _480
REMARK  197  A    between atoms: _483  and  _485
REMARK  198  A    between atoms: _485  and  _486
REMARK  199  A    between atoms: _489  and  _491
REMARK  200  A    between atoms: _491  and  _492
REMARK  201  A    between atoms: _494  and  _496
REMARK  202  A    between atoms: _496  and  _497
REMARK  203  A    between atoms: _496  and  _499
REMARK  204  A    between atoms: _499  and  _500
REMARK  205  A    between atoms: _505  and  _507
REMARK  206  A    between atoms: _507  and  _508
REMARK  207  A    between atoms: _507  and  _510
REMARK  208  A    between atoms: _510  and  _511
REMARK  209  A    between atoms: _513  and  _515
REMARK  210  A    between atoms: _515  and  _516
REMARK  211  A    between atoms: _515  and  _518
REMARK  212  A    between atoms: _518  and  _519
REMARK  213  A    between atoms: _522  and  _524
REMARK  214  A    between atoms: _524  and  _525
REMARK  215  A    between atoms: _524  and  _527
REMARK  216  A    between atoms: _527  and  _528
REMARK  217  A    between atoms: _531  and  _533
REMARK  218  A    between atoms: _533  and  _534
REMARK  219  A    between atoms: _533  and  _536
REMARK  220  A    between atoms: _536  and  _537
REMARK  221  A    between atoms: _540  and  _542
REMARK  222  A    between atoms: _542  and  _543
REMARK  223  A    between atoms: _542  and  _545
REMARK  224  A    between atoms: _545  and  _546
REMARK  225  A    between atoms: _549  and  _551
REMARK  226  A    between atoms: _551  and  _552
REMARK  227  A    between atoms: _551  and  _554
REMARK  228  A    between atoms: _554  and  _555
REMARK  229  A    between atoms: _555  and  _556
REMARK  230  A    between atoms: _561  and  _563
REMARK  231  A    between atoms: _563  and  _564
REMARK  232  A    between atoms: _563  and  _566
REMARK  233  A    between atoms: _566  and  _567
REMARK  234  A    between atoms: _570  and  _572
REMARK  235  A    between atoms: _572  and  _573
REMARK  236  A    between atoms: _572  and  _575
REMARK  237  A    between atoms: _575  and  _576
REMARK  238  A    between atoms: _581  and  _583
REMARK  239  A    between atoms: _583  and  _584
REMARK  240  A    between atoms: _583  and  _586
REMARK  241  A    between atoms: _586  and  _587
REMARK  242  A    between atoms: _589  and  _591
REMARK  243  A    between atoms: _591  and  _592
REMARK  244  A    between atoms: _591  and  _594
REMARK  245  A    between atoms: _594  and  _595
REMARK  246  A    between atoms: _595  and  _596
REMARK  247  A    between atoms: _601  and  _603
REMARK  248  A    between atoms: _603  and  _604
REMARK  249  A    between atoms: _603  and  _606
REMARK  250  A    between atoms: _606  and  _607
REMARK  251  A    between atoms: _612  and  _613
REMARK  252  A    between atoms: _615  and  _617
REMARK  253  A    between atoms: _617  and  _618
REMARK  254  A    between atoms: _617  and  _620
REMARK  255  A    between atoms: _620  and  _621
REMARK  256  A    between atoms: _624  and  _626
REMARK  257  A    between atoms: _626  and  _627
REMARK  258  A    between atoms: _626  and  _629
REMARK  259  A    between atoms: _629  and  _630
REMARK  260  A    between atoms: _630  and  _631
REMARK  261  A    between atoms: _631  and  _632
REMARK  262  A    between atoms: _632  and  _633
REMARK  263  A    between atoms: _637  and  _639
REMARK  264  A    between atoms: _639  and  _640
REMARK  265  A    between atoms: _639  and  _642
REMARK  266  A    between atoms: _642  and  _643
REMARK  267  A    between atoms: _646  and  _648
REMARK  268  A    between atoms: _648  and  _649
REMARK  269  A    between atoms: _648  and  _651
REMARK  270  A    between atoms: _651  and  _652
REMARK  271  A    between atoms: _655  and  _657
REMARK  272  A    between atoms: _657  and  _658
REMARK  273  A    between atoms: _657  and  _660
REMARK  274  A    between atoms: _663  and  _665
REMARK  275  A    between atoms: _665  and  _666
REMARK  276  A    between atoms: _665  and  _668
REMARK  277  A    between atoms: _668  and  _669
REMARK                            x       y       z     vdW  Elec       q    Type
REMARK                         _______ _______ _______ _____ _____    ______ ____
ROOT
ATOM      1  O   HOH     1      14.269  10.334  30.737  0.00  0.00    +0.000 OA
ENDROOT
TORSDOF 0
REMARK  Name = ../refined-set-2016/1s19/1s19_pocket.pdb
REMARK  277 active torsions:
REMARK  status: ('A' for Active; 'I' for Inactive)
REMARK    1  A    between atoms: _1  and  _3
REMARK    2  A    between atoms: _3  and  _4
REMARK    3  A    between atoms: _3  and  _6
REMARK    4  A    between atoms: _6  and  _7
REMARK    5  A    between atoms: _10  and  _12
REMARK    6  A    between atoms: _12  and  _13
REMARK    7  A    between atoms: _12  and  _15
REMARK    8  A    between atoms: _15  and  _16
REMARK    9  A    between atoms: _21  and  _22
REMARK   10  A    between atoms: _24  and  _26
REMARK   11  A    between atoms: _26  and  _27
REMARK   12  A    between atoms: _26  and  _29
REMARK   13  A    between atoms: _29  and  _30
REMARK   14  A    between atoms: _33  and  _35
REMARK   15  A    between atoms: _35  and  _36
REMARK   16  A    between atoms: _35  and  _38
REMARK   17  A    between atoms: _38  and  _39
REMARK   18  A    between atoms: _44  and  _45
REMARK   19  A    between atoms: _47  and  _49
REMARK   20  A    between atoms: _49  and  _50
REMARK   21  A    between atoms: _49  and  _52
REMARK   22  A    between atoms: _52  and  _53
REMARK   23  A    between atoms: _59  and  _61
REMARK   24  A    between atoms: _61  and  _62
REMARK   25  A    between atoms: _61  and  _64
REMARK   26  A    between atoms: _64  and  _65
REMARK   27  A    between atoms: _71  and  _73
REMARK   28  A    between atoms: _73  and  _74
REMARK   29  A    between atoms: _73  and  _76
REMARK   30  A    between atoms: _76  and  _77
REMARK   31  A    between atoms: _77  and  _78
REMARK   32  A    between atoms: _78  and  _79
REMARK   33  A    between atoms: _88  and  _90
REMARK   34  A    between atoms: _90  and  _91
REMARK   35  A    between atoms: _90  and  _93
REMARK   36  A    between atoms: _93  and  _94
REMARK   37  A    between atoms: _94  and  _95
REMARK   38  A    between atoms: _97  and  _99
REMARK   39  A    between atoms: _99  and  _100
REMARK   40  A    between atoms: _99  and  _102
REMARK   41  A    between atoms: _102  and  _103
REMARK   42  A    between atoms: _107  and  _108
REMARK   43  A    between atoms: _113  and  _115
REMARK   44  A    between atoms: _115  and  _116
REMARK   45  A    between atoms: _115  and  _118
REMARK   46  A    between atoms: _118  and  _119
REMARK   47  A    between atoms: _124  and  _126
REMARK   48  A    between atoms: _126  and  _127
REMARK   49  A    between atoms: _126  and  _129
REMARK   50  A    between atoms: _129  and  _130
REMARK   51  A    between atoms: _133  and  _135
REMARK   52  A    between atoms: _135  and  _136
REMARK   53  A    between atoms: _139  and  _141
REMARK   54  A    between atoms: _141  and  _142
REMARK   55  A    between atoms: _141  and  _144
REMARK   56  A    between atoms: _144  and  _145
REMARK   57  A    between atoms: _148  and  _150
REMARK   58  A    between atoms: _150  and  _151
REMARK   59  A    between atoms: _150  and  _153
REMARK   60  A    between atoms: _153  and  _154
REMARK   61  A    between atoms: _157  and  _159
REMARK   62  A    between atoms: _159  and  _160
REMARK   63  A    between atoms: _159  and  _162
REMARK   64  A    between atoms: _165  and  _167
REMARK   65  A    between atoms: _167  and  _168
REMARK   66  A    between atoms: _167  and  _170
REMARK   67  A    between atoms: _170  and  _171
REMARK   68  A    between atoms: _173  and  _175
REMARK   69  A    between atoms: _175  and  _176
REMARK   70  A    between atoms: _175  and  _178
REMARK   71  A    between atoms: _178  and  _179
REMARK   72  A    between atoms: _184  and  _185
REMARK   73  A    between atoms: _187  and  _189
REMARK   74  A    between atoms: _189  and  _190
REMARK   75  A    between atoms: _189  and  _192
REMARK   76  A    between atoms: _192  and  _193
REMARK   77  A    between atoms: _195  and  _197
REMARK   78  A    between atoms: _197  and  _198
REMARK   79  A    between atoms: _197  and  _200
REMARK   80  A    between atoms: _200  and  _201
REMARK   81  A    between atoms: _204  and  _206
REMARK   82  A    between atoms: _206  and  _207
REMARK   83  A    between atoms: _206  and  _209
REMARK   84  A    between atoms: _209  and  _210
REMARK   85  A    between atoms: _210  and  _211
REMARK   86  A    between atoms: _211  and  _212
REMARK   87  A    between atoms: _212  and  _213
REMARK   88  A    between atoms: _217  and  _219
REMARK   89  A    between atoms: _219  and  _220
REMARK   90  A    between atoms: _219  and  _222
REMARK   91  A    between atoms: _225  and  _227
REMARK   92  A    between atoms: _227  and  _228
REMARK   93  A    between atoms: _231  and  _233
REMARK   94  A    between atoms: _233  and  _234
REMARK   95  A    between atoms: _233  and  _236
REMARK   96  A    between atoms: _236  and  _237
REMARK   97  A    between atoms: _240  and  _242
REMARK   98  A    between atoms: _242  and  _243
REMARK   99  A    between atoms: _242  and  _245
REMARK  100  A    between atoms: _245  and  _246
REMARK  101  A    between atoms: _246  and  _247
REMARK  102  A    between atoms: _250  and  _252
REMARK  103  A    between atoms: _252  and  _253
REMARK  104  A    between atoms: _252  and  _255
REMARK  105  A    between atoms: _258  and  _260
REMARK  106  A    between atoms: _260  and  _261
REMARK  107  A    between atoms: _260  and  _263
REMARK  108  A    between atoms: _263  and  _264
REMARK  109  A    between atoms: _267  and  _269
REMARK  110  A    between atoms: _269  and  _270
REMARK  111  A    between atoms: _269  and  _272
REMARK  112  A    between atoms: _272  and  _273
REMARK  113  A    between atoms: _273  and  _274
REMARK  114  A    between atoms: _276  and  _278
REMARK  115  A    between atoms: _278  and  _279
REMARK  116  A    between atoms: _278  and  _281
REMARK  117  A    between atoms: _281  and  _282
REMARK  118  A    between atoms: _285  and  _287
REMARK  119  A    between atoms: _287  and  _288
REMARK  120  A    between atoms: _287  and  _290
REMARK  121  A    between atoms: _290  and  _291
REMARK  122  A    between atoms: _291  and  _292
REMARK  123  A    between atoms: _292  and  _293
REMARK  124  A    between atoms: _302  and  _304
REMARK  125  A    between atoms: _304  and  _305
REMARK  126  A    between atoms: _304  and  _307
REMARK  127  A    between atoms: _307  and  _308
REMARK  128  A    between atoms: _310  and  _312
REMARK  129  A    between atoms: _312  and  _313
REMARK  130  A    between atoms: _312  and  _315
REMARK  131  A    between atoms: _315  and  _316
REMARK  132  A    between atoms: _321  and  _323
REMARK  133  A    between atoms: _323  and  _324
REMARK  134  A    between atoms: _323  and  _326
REMARK  135  A    between atoms: _326  and  _327
REMARK  136  A    between atoms: _327  and  _328
REMARK  137  A    between atoms: _331  and  _333
REMARK  138  A    between atoms: _333  and  _334
REMARK  139  A    between atoms: _333  and  _336
REMARK  140  A    between atoms: _336  and  _337
REMARK  141  A    between atoms: _339  and  _341
REMARK  142  A    between atoms: _341  and  _342
REMARK  143  A    between atoms: _341  and  _344
REMARK  144  A    between atoms: _344  and  _345
REMARK  145  A    between atoms: _351  and  _353
REMARK  146  A    between atoms: _353  and  _354
REMARK  147  A    between atoms: _353  and  _356
REMARK  148  A    between atoms: _356  and  _357
REMARK  149  A    between atoms: _359  and  _361
REMARK  150  A    between atoms: _361  and  _362
REMARK  151  A    between atoms: _361  and  _364
REMARK  152  A    between atoms: _364  and  _365
REMARK  153  A    between atoms: _375  and  _377
REMARK  154  A    between atoms: _377  and  _378
REMARK  155  A    between atoms: _377  and  _380
REMARK  156  A    between atoms: _380  and  _381
REMARK  157  A    between atoms: _384  and  _386
REMARK  158  A    between atoms: _386  and  _387
REMARK  159  A    between atoms: _386  and  _389
REMARK  160  A    between atoms: _391  and  _393
REMARK  161  A    between atoms: _393  and  _394
REMARK  162  A    between atoms: _393  and  _396
REMARK  163  A    between atoms: _396  and  _397
REMARK  164  A    between atoms: _402  and  _403
REMARK  165  A    between atoms: _405  and  _407
REMARK  166  A    between atoms: _407  and  _408
REMARK  167  A    between atoms: _407  and  _410
REMARK  168  A    between atoms: _410  and  _411
REMARK  169  A    between atoms: _411  and  _412
REMARK  170  A    between atoms: _412  and  _413
REMARK  171  A    between atoms: _413  and  _414
REMARK  172  A    between atoms: _418  and  _420
REMARK  173  A    between atoms: _420  and  _421
REMARK  174  A    between atoms: _420  and  _423
REMARK  175  A    between atoms: _423  and  _424
REMARK  176  A    between atoms: _429  and  _430
REMARK  177  A    between atoms: _432  and  _434
REMARK  178  A    between atoms: _434  and  _435
REMARK  179  A    between atoms: _434  and  _437
REMARK  180  A    between atoms: _437  and  _438
REMARK  181  A    between atoms: _438  and  _439
REMARK  182  A    between atoms: _439  and  _440
REMARK  183  A    between atoms: _449  and  _451
REMARK  184  A    between atoms: _451  and  _452
REMARK  185  A    between atoms: _451  and  _454
REMARK  186  A    between atoms: _457  and  _459
REMARK  187  A    between atoms: _459  and  _460
REMARK  188  A    between atoms: _459  and  _462
REMARK  189  A    between atoms: _462  and  _463
REMARK  190  A    between atoms: _466  and  _468
REMARK  191  A    between atoms: _468  and  _469
REMARK  192  A    between atoms: _468  and  _471
REMARK  193  A    between atoms: _474  and  _476
REMARK  194  A    between atoms: _476  and  _477
REMARK  195  A    between atoms: _476  and  _479
REMARK  196  A    between atoms: _479  and  _480
REMARK  197  A    between atoms: _483  and  _485
REMARK  198  A    between atoms: _485  and  _486
REMARK  199  A    between atoms: _489  and  _491
REMARK  200  A    between atoms: _491  and  _492
REMARK  201  A    between atoms: _494  and  _496
REMARK  202  A    between atoms: _496  and  _497
REMARK  203  A    between atoms: _496  and  _499
REMARK  204  A    between atoms: _499  and  _500
REMARK  205  A    between atoms: _505  and  _507
REMARK  206  A    between atoms: _507  and  _508
REMARK  207  A    between atoms: _507  and  _510
REMARK  208  A    between atoms: _510  and  _511
REMARK  209  A    between atoms: _513  and  _515
REMARK  210  A    between atoms: _515  and  _516
REMARK  211  A    between atoms: _515  and  _518
REMARK  212  A    between atoms: _518  and  _519
REMARK  213  A    between atoms: _522  and  _524
REMARK  214  A    between atoms: _524  and  _525
REMARK  215  A    between atoms: _524  and  _527
REMARK  216  A    between atoms: _527  and  _528
REMARK  217  A    between atoms: _531  and  _533
REMARK  218  A    between atoms: _533  and  _534
REMARK  219  A    between atoms: _533  and  _536
REMARK  220  A    between atoms: _536  and  _537
REMARK  221  A    between atoms: _540  and  _542
REMARK  222  A    between atoms: _542  and  _543
REMARK  223  A    between atoms: _542  and  _545
REMARK  224  A    between atoms: _545  and  _546
REMARK  225  A    between atoms: _549  and  _551
REMARK  226  A    between atoms: _551  and  _552
REMARK  227  A    between atoms: _551  and  _554
REMARK  228  A    between atoms: _554  and  _555
REMARK  229  A    between atoms: _555  and  _556
REMARK  230  A    between atoms: _561  and  _563
REMARK  231  A    between atoms: _563  and  _564
REMARK  232  A    between atoms: _563  and  _566
REMARK  233  A    between atoms: _566  and  _567
REMARK  234  A    between atoms: _570  and  _572
REMARK  235  A    between atoms: _572  and  _573
REMARK  236  A    between atoms: _572  and  _575
REMARK  237  A    between atoms: _575  and  _576
REMARK  238  A    between atoms: _581  and  _583
REMARK  239  A    between atoms: _583  and  _584
REMARK  240  A    between atoms: _583  and  _586
REMARK  241  A    between atoms: _586  and  _587
REMARK  242  A    between atoms: _589  and  _591
REMARK  243  A    between atoms: _591  and  _592
REMARK  244  A    between atoms: _591  and  _594
REMARK  245  A    between atoms: _594  and  _595
REMARK  246  A    between atoms: _595  and  _596
REMARK  247  A    between atoms: _601  and  _603
REMARK  248  A    between atoms: _603  and  _604
REMARK  249  A    between atoms: _603  and  _606
REMARK  250  A    between atoms: _606  and  _607
REMARK  251  A    between atoms: _612  and  _613
REMARK  252  A    between atoms: _615  and  _617
REMARK  253  A    between atoms: _617  and  _618
REMARK  254  A    between atoms: _617  and  _620
REMARK  255  A    between atoms: _620  and  _621
REMARK  256  A    between atoms: _624  and  _626
REMARK  257  A    between atoms: _626  and  _627
REMARK  258  A    between atoms: _626  and  _629
REMARK  259  A    between atoms: _629  and  _630
REMARK  260  A    between atoms: _630  and  _631
REMARK  261  A    between atoms: _631  and  _632
REMARK  262  A    between atoms: _632  and  _633
REMARK  263  A    between atoms: _637  and  _639
REMARK  264  A    between atoms: _639  and  _640
REMARK  265  A    between atoms: _639  and  _642
REMARK  266  A    between atoms: _642  and  _643
REMARK  267  A    between atoms: _646  and  _648
REMARK  268  A    between atoms: _648  and  _649
REMARK  269  A    between atoms: _648  and  _651
REMARK  270  A    between atoms: _651  and  _652
REMARK  271  A    between atoms: _655  and  _657
REMARK  272  A    between atoms: _657  and  _658
REMARK  273  A    between atoms: _657  and  _660
REMARK  274  A    between atoms: _663  and  _665
REMARK  275  A    between atoms: _665  and  _666
REMARK  276  A    between atoms: _665  and  _668
REMARK  277  A    between atoms: _668  and  _669
REMARK                            x       y       z     vdW  Elec       q    Type
REMARK                         _______ _______ _______ _____ _____    ______ ____
ROOT
ATOM      1  O   HOH     1      19.094  16.073  40.143  0.00  0.00    +0.000 OA
ENDROOT
TORSDOF 0
REMARK  Name = ../refined-set-2016/1s19/1s19_pocket.pdb
REMARK  277 active torsions:
REMARK  status: ('A' for Active; 'I' for Inactive)
REMARK    1  A    between atoms: _1  and  _3
REMARK    2  A    between atoms: _3  and  _4
REMARK    3  A    between atoms: _3  and  _6
REMARK    4  A    between atoms: _6  and  _7
REMARK    5  A    between atoms: _10  and  _12
REMARK    6  A    between atoms: _12  and  _13
REMARK    7  A    between atoms: _12  and  _15
REMARK    8  A    between atoms: _15  and  _16
REMARK    9  A    between atoms: _21  and  _22
REMARK   10  A    between atoms: _24  and  _26
REMARK   11  A    between atoms: _26  and  _27
REMARK   12  A    between atoms: _26  and  _29
REMARK   13  A    between atoms: _29  and  _30
REMARK   14  A    between atoms: _33  and  _35
REMARK   15  A    between atoms: _35  and  _36
REMARK   16  A    between atoms: _35  and  _38
REMARK   17  A    between atoms: _38  and  _39
REMARK   18  A    between atoms: _44  and  _45
REMARK   19  A    between atoms: _47  and  _49
REMARK   20  A    between atoms: _49  and  _50
REMARK   21  A    between atoms: _49  and  _52
REMARK   22  A    between atoms: _52  and  _53
REMARK   23  A    between atoms: _59  and  _61
REMARK   24  A    between atoms: _61  and  _62
REMARK   25  A    between atoms: _61  and  _64
REMARK   26  A    between atoms: _64  and  _65
REMARK   27  A    between atoms: _71  and  _73
REMARK   28  A    between atoms: _73  and  _74
REMARK   29  A    between atoms: _73  and  _76
REMARK   30  A    between atoms: _76  and  _77
REMARK   31  A    between atoms: _77  and  _78
REMARK   32  A    between atoms: _78  and  _79
REMARK   33  A    between atoms: _88  and  _90
REMARK   34  A    between atoms: _90  and  _91
REMARK   35  A    between atoms: _90  and  _93
REMARK   36  A    between atoms: _93  and  _94
REMARK   37  A    between atoms: _94  and  _95
REMARK   38  A    between atoms: _97  and  _99
REMARK   39  A    between atoms: _99  and  _100
REMARK   40  A    between atoms: _99  and  _102
REMARK   41  A    between atoms: _102  and  _103
REMARK   42  A    between atoms: _107  and  _108
REMARK   43  A    between atoms: _113  and  _115
REMARK   44  A    between atoms: _115  and  _116
REMARK   45  A    between atoms: _115  and  _118
REMARK   46  A    between atoms: _118  and  _119
REMARK   47  A    between atoms: _124  and  _126
REMARK   48  A    between atoms: _126  and  _127
REMARK   49  A    between atoms: _126  and  _129
REMARK   50  A    between atoms: _129  and  _130
REMARK   51  A    between atoms: _133  and  _135
REMARK   52  A    between atoms: _135  and  _136
REMARK   53  A    between atoms: _139  and  _141
REMARK   54  A    between atoms: _141  and  _142
REMARK   55  A    between atoms: _141  and  _144
REMARK   56  A    between atoms: _144  and  _145
REMARK   57  A    between atoms: _148  and  _150
REMARK   58  A    between atoms: _150  and  _151
REMARK   59  A    between atoms: _150  and  _153
REMARK   60  A    between atoms: _153  and  _154
REMARK   61  A    between atoms: _157  and  _159
REMARK   62  A    between atoms: _159  and  _160
REMARK   63  A    between atoms: _159  and  _162
REMARK   64  A    between atoms: _165  and  _167
REMARK   65  A    between atoms: _167  and  _168
REMARK   66  A    between atoms: _167  and  _170
REMARK   67  A    between atoms: _170  and  _171
REMARK   68  A    between atoms: _173  and  _175
REMARK   69  A    between atoms: _175  and  _176
REMARK   70  A    between atoms: _175  and  _178
REMARK   71  A    between atoms: _178  and  _179
REMARK   72  A    between atoms: _184  and  _185
REMARK   73  A    between atoms: _187  and  _189
REMARK   74  A    between atoms: _189  and  _190
REMARK   75  A    between atoms: _189  and  _192
REMARK   76  A    between atoms: _192  and  _193
REMARK   77  A    between atoms: _195  and  _197
REMARK   78  A    between atoms: _197  and  _198
REMARK   79  A    between atoms: _197  and  _200
REMARK   80  A    between atoms: _200  and  _201
REMARK   81  A    between atoms: _204  and  _206
REMARK   82  A    between atoms: _206  and  _207
REMARK   83  A    between atoms: _206  and  _209
REMARK   84  A    between atoms: _209  and  _210
REMARK   85  A    between atoms: _210  and  _211
REMARK   86  A    between atoms: _211  and  _212
REMARK   87  A    between atoms: _212  and  _213
REMARK   88  A    between atoms: _217  and  _219
REMARK   89  A    between atoms: _219  and  _220
REMARK   90  A    between atoms: _219  and  _222
REMARK   91  A    between atoms: _225  and  _227
REMARK   92  A    between atoms: _227  and  _228
REMARK   93  A    between atoms: _231  and  _233
REMARK   94  A    between atoms: _233  and  _234
REMARK   95  A    between atoms: _233  and  _236
REMARK   96  A    between atoms: _236  and  _237
REMARK   97  A    between atoms: _240  and  _242
REMARK   98  A    between atoms: _242  and  _243
REMARK   99  A    between atoms: _242  and  _245
REMARK  100  A    between atoms: _245  and  _246
REMARK  101  A    between atoms: _246  and  _247
REMARK  102  A    between atoms: _250  and  _252
REMARK  103  A    between atoms: _252  and  _253
REMARK  104  A    between atoms: _252  and  _255
REMARK  105  A    between atoms: _258  and  _260
REMARK  106  A    between atoms: _260  and  _261
REMARK  107  A    between atoms: _260  and  _263
REMARK  108  A    between atoms: _263  and  _264
REMARK  109  A    between atoms: _267  and  _269
REMARK  110  A    between atoms: _269  and  _270
REMARK  111  A    between atoms: _269  and  _272
REMARK  112  A    between atoms: _272  and  _273
REMARK  113  A    between atoms: _273  and  _274
REMARK  114  A    between atoms: _276  and  _278
REMARK  115  A    between atoms: _278  and  _279
REMARK  116  A    between atoms: _278  and  _281
REMARK  117  A    between atoms: _281  and  _282
REMARK  118  A    between atoms: _285  and  _287
REMARK  119  A    between atoms: _287  and  _288
REMARK  120  A    between atoms: _287  and  _290
REMARK  121  A    between atoms: _290  and  _291
REMARK  122  A    between atoms: _291  and  _292
REMARK  123  A    between atoms: _292  and  _293
REMARK  124  A    between atoms: _302  and  _304
REMARK  125  A    between atoms: _304  and  _305
REMARK  126  A    between atoms: _304  and  _307
REMARK  127  A    between atoms: _307  and  _308
REMARK  128  A    between atoms: _310  and  _312
REMARK  129  A    between atoms: _312  and  _313
REMARK  130  A    between atoms: _312  and  _315
REMARK  131  A    between atoms: _315  and  _316
REMARK  132  A    between atoms: _321  and  _323
REMARK  133  A    between atoms: _323  and  _324
REMARK  134  A    between atoms: _323  and  _326
REMARK  135  A    between atoms: _326  and  _327
REMARK  136  A    between atoms: _327  and  _328
REMARK  137  A    between atoms: _331  and  _333
REMARK  138  A    between atoms: _333  and  _334
REMARK  139  A    between atoms: _333  and  _336
REMARK  140  A    between atoms: _336  and  _337
REMARK  141  A    between atoms: _339  and  _341
REMARK  142  A    between atoms: _341  and  _342
REMARK  143  A    between atoms: _341  and  _344
REMARK  144  A    between atoms: _344  and  _345
REMARK  145  A    between atoms: _351  and  _353
REMARK  146  A    between atoms: _353  and  _354
REMARK  147  A    between atoms: _353  and  _356
REMARK  148  A    between atoms: _356  and  _357
REMARK  149  A    between atoms: _359  and  _361
REMARK  150  A    between atoms: _361  and  _362
REMARK  151  A    between atoms: _361  and  _364
REMARK  152  A    between atoms: _364  and  _365
REMARK  153  A    between atoms: _375  and  _377
REMARK  154  A    between atoms: _377  and  _378
REMARK  155  A    between atoms: _377  and  _380
REMARK  156  A    between atoms: _380  and  _381
REMARK  157  A    between atoms: _384  and  _386
REMARK  158  A    between atoms: _386  and  _387
REMARK  159  A    between atoms: _386  and  _389
REMARK  160  A    between atoms: _391  and  _393
REMARK  161  A    between atoms: _393  and  _394
REMARK  162  A    between atoms: _393  and  _396
REMARK  163  A    between atoms: _396  and  _397
REMARK  164  A    between atoms: _402  and  _403
REMARK  165  A    between atoms: _405  and  _407
REMARK  166  A    between atoms: _407  and  _408
REMARK  167  A    between atoms: _407  and  _410
REMARK  168  A    between atoms: _410  and  _411
REMARK  169  A    between atoms: _411  and  _412
REMARK  170  A    between atoms: _412  and  _413
REMARK  171  A    between atoms: _413  and  _414
REMARK  172  A    between atoms: _418  and  _420
REMARK  173  A    between atoms: _420  and  _421
REMARK  174  A    between atoms: _420  and  _423
REMARK  175  A    between atoms: _423  and  _424
REMARK  176  A    between atoms: _429  and  _430
REMARK  177  A    between atoms: _432  and  _434
REMARK  178  A    between atoms: _434  and  _435
REMARK  179  A    between atoms: _434  and  _437
REMARK  180  A    between atoms: _437  and  _438
REMARK  181  A    between atoms: _438  and  _439
REMARK  182  A    between atoms: _439  and  _440
REMARK  183  A    between atoms: _449  and  _451
REMARK  184  A    between atoms: _451  and  _452
REMARK  185  A    between atoms: _451  and  _454
REMARK  186  A    between atoms: _457  and  _459
REMARK  187  A    between atoms: _459  and  _460
REMARK  188  A    between atoms: _459  and  _462
REMARK  189  A    between atoms: _462  and  _463
REMARK  190  A    between atoms: _466  and  _468
REMARK  191  A    between atoms: _468  and  _469
REMARK  192  A    between atoms: _468  and  _471
REMARK  193  A    between atoms: _474  and  _476
REMARK  194  A    between atoms: _476  and  _477
REMARK  195  A    between atoms: _476  and  _479
REMARK  196  A    between atoms: _479  and  _480
REMARK  197  A    between atoms: _483  and  _485
REMARK  198  A    between atoms: _485  and  _486
REMARK  199  A    between atoms: _489  and  _491
REMARK  200  A    between atoms: _491  and  _492
REMARK  201  A    between atoms: _494  and  _496
REMARK  202  A    between atoms: _496  and  _497
REMARK  203  A    between atoms: _496  and  _499
REMARK  204  A    between atoms: _499  and  _500
REMARK  205  A    between atoms: _505  and  _507
REMARK  206  A    between atoms: _507  and  _508
REMARK  207  A    between atoms: _507  and  _510
REMARK  208  A    between atoms: _510  and  _511
REMARK  209  A    between atoms: _513  and  _515
REMARK  210  A    between atoms: _515  and  _516
REMARK  211  A    between atoms: _515  and  _518
REMARK  212  A    between atoms: _518  and  _519
REMARK  213  A    between atoms: _522  and  _524
REMARK  214  A    between atoms: _524  and  _525
REMARK  215  A    between atoms: _524  and  _527
REMARK  216  A    between atoms: _527  and  _528
REMARK  217  A    between atoms: _531  and  _533
REMARK  218  A    between atoms: _533  and  _534
REMARK  219  A    between atoms: _533  and  _536
REMARK  220  A    between atoms: _536  and  _537
REMARK  221  A    between atoms: _540  and  _542
REMARK  222  A    between atoms: _542  and  _543
REMARK  223  A    between atoms: _542  and  _545
REMARK  224  A    between atoms: _545  and  _546
REMARK  225  A    between atoms: _549  and  _551
REMARK  226  A    between atoms: _551  and  _552
REMARK  227  A    between atoms: _551  and  _554
REMARK  228  A    between atoms: _554  and  _555
REMARK  229  A    between atoms: _555  and  _556
REMARK  230  A    between atoms: _561  and  _563
REMARK  231  A    between atoms: _563  and  _564
REMARK  232  A    between atoms: _563  and  _566
REMARK  233  A    between atoms: _566  and  _567
REMARK  234  A    between atoms: _570  and  _572
REMARK  235  A    between atoms: _572  and  _573
REMARK  236  A    between atoms: _572  and  _575
REMARK  237  A    between atoms: _575  and  _576
REMARK  238  A    between atoms: _581  and  _583
REMARK  239  A    between atoms: _583  and  _584
REMARK  240  A    between atoms: _583  and  _586
REMARK  241  A    between atoms: _586  and  _587
REMARK  242  A    between atoms: _589  and  _591
REMARK  243  A    between atoms: _591  and  _592
REMARK  244  A    between atoms: _591  and  _594
REMARK  245  A    between atoms: _594  and  _595
REMARK  246  A    between atoms: _595  and  _596
REMARK  247  A    between atoms: _601  and  _603
REMARK  248  A    between atoms: _603  and  _604
REMARK  249  A    between atoms: _603  and  _606
REMARK  250  A    between atoms: _606  and  _607
REMARK  251  A    between atoms: _612  and  _613
REMARK  252  A    between atoms: _615  and  _617
REMARK  253  A    between atoms: _617  and  _618
REMARK  254  A    between atoms: _617  and  _620
REMARK  255  A    between atoms: _620  and  _621
REMARK  256  A    between atoms: _624  and  _626
REMARK  257  A    between atoms: _626  and  _627
REMARK  258  A    between atoms: _626  and  _629
REMARK  259  A    between atoms: _629  and  _630
REMARK  260  A    between atoms: _630  and  _631
REMARK  261  A    between atoms: _631  and  _632
REMARK  262  A    between atoms: _632  and  _633
REMARK  263  A    between atoms: _637  and  _639
REMARK  264  A    between atoms: _639  and  _640
REMARK  265  A    between atoms: _639  and  _642
REMARK  266  A    between atoms: _642  and  _643
REMARK  267  A    between atoms: _646  and  _648
REMARK  268  A    between atoms: _648  and  _649
REMARK  269  A    between atoms: _648  and  _651
REMARK  270  A    between atoms: _651  and  _652
REMARK  271  A    between atoms: _655  and  _657
REMARK  272  A    between atoms: _657  and  _658
REMARK  273  A    between atoms: _657  and  _660
REMARK  274  A    between atoms: _663  and  _665
REMARK  275  A    between atoms: _665  and  _666
REMARK  276  A    between atoms: _665  and  _668
REMARK  277  A    between atoms: _668  and  _669
REMARK                            x       y       z     vdW  Elec       q    Type
REMARK                         _______ _______ _______ _____ _____    ______ ____
ROOT
ATOM      1  O   HOH     1      13.883  12.849  35.832  0.00  0.00    +0.000 OA
ENDROOT
TORSDOF 0
REMARK  Name = ../refined-set-2016/1s19/1s19_pocket.pdb
REMARK  277 active torsions:
REMARK  status: ('A' for Active; 'I' for Inactive)
REMARK    1  A    between atoms: _1  and  _3
REMARK    2  A    between atoms: _3  and  _4
REMARK    3  A    between atoms: _3  and  _6
REMARK    4  A    between atoms: _6  and  _7
REMARK    5  A    between atoms: _10  and  _12
REMARK    6  A    between atoms: _12  and  _13
REMARK    7  A    between atoms: _12  and  _15
REMARK    8  A    between atoms: _15  and  _16
REMARK    9  A    between atoms: _21  and  _22
REMARK   10  A    between atoms: _24  and  _26
REMARK   11  A    between atoms: _26  and  _27
REMARK   12  A    between atoms: _26  and  _29
REMARK   13  A    between atoms: _29  and  _30
REMARK   14  A    between atoms: _33  and  _35
REMARK   15  A    between atoms: _35  and  _36
REMARK   16  A    between atoms: _35  and  _38
REMARK   17  A    between atoms: _38  and  _39
REMARK   18  A    between atoms: _44  and  _45
REMARK   19  A    between atoms: _47  and  _49
REMARK   20  A    between atoms: _49  and  _50
REMARK   21  A    between atoms: _49  and  _52
REMARK   22  A    between atoms: _52  and  _53
REMARK   23  A    between atoms: _59  and  _61
REMARK   24  A    between atoms: _61  and  _62
REMARK   25  A    between atoms: _61  and  _64
REMARK   26  A    between atoms: _64  and  _65
REMARK   27  A    between atoms: _71  and  _73
REMARK   28  A    between atoms: _73  and  _74
REMARK   29  A    between atoms: _73  and  _76
REMARK   30  A    between atoms: _76  and  _77
REMARK   31  A    between atoms: _77  and  _78
REMARK   32  A    between atoms: _78  and  _79
REMARK   33  A    between atoms: _88  and  _90
REMARK   34  A    between atoms: _90  and  _91
REMARK   35  A    between atoms: _90  and  _93
REMARK   36  A    between atoms: _93  and  _94
REMARK   37  A    between atoms: _94  and  _95
REMARK   38  A    between atoms: _97  and  _99
REMARK   39  A    between atoms: _99  and  _100
REMARK   40  A    between atoms: _99  and  _102
REMARK   41  A    between atoms: _102  and  _103
REMARK   42  A    between atoms: _107  and  _108
REMARK   43  A    between atoms: _113  and  _115
REMARK   44  A    between atoms: _115  and  _116
REMARK   45  A    between atoms: _115  and  _118
REMARK   46  A    between atoms: _118  and  _119
REMARK   47  A    between atoms: _124  and  _126
REMARK   48  A    between atoms: _126  and  _127
REMARK   49  A    between atoms: _126  and  _129
REMARK   50  A    between atoms: _129  and  _130
REMARK   51  A    between atoms: _133  and  _135
REMARK   52  A    between atoms: _135  and  _136
REMARK   53  A    between atoms: _139  and  _141
REMARK   54  A    between atoms: _141  and  _142
REMARK   55  A    between atoms: _141  and  _144
REMARK   56  A    between atoms: _144  and  _145
REMARK   57  A    between atoms: _148  and  _150
REMARK   58  A    between atoms: _150  and  _151
REMARK   59  A    between atoms: _150  and  _153
REMARK   60  A    between atoms: _153  and  _154
REMARK   61  A    between atoms: _157  and  _159
REMARK   62  A    between atoms: _159  and  _160
REMARK   63  A    between atoms: _159  and  _162
REMARK   64  A    between atoms: _165  and  _167
REMARK   65  A    between atoms: _167  and  _168
REMARK   66  A    between atoms: _167  and  _170
REMARK   67  A    between atoms: _170  and  _171
REMARK   68  A    between atoms: _173  and  _175
REMARK   69  A    between atoms: _175  and  _176
REMARK   70  A    between atoms: _175  and  _178
REMARK   71  A    between atoms: _178  and  _179
REMARK   72  A    between atoms: _184  and  _185
REMARK   73  A    between atoms: _187  and  _189
REMARK   74  A    between atoms: _189  and  _190
REMARK   75  A    between atoms: _189  and  _192
REMARK   76  A    between atoms: _192  and  _193
REMARK   77  A    between atoms: _195  and  _197
REMARK   78  A    between atoms: _197  and  _198
REMARK   79  A    between atoms: _197  and  _200
REMARK   80  A    between atoms: _200  and  _201
REMARK   81  A    between atoms: _204  and  _206
REMARK   82  A    between atoms: _206  and  _207
REMARK   83  A    between atoms: _206  and  _209
REMARK   84  A    between atoms: _209  and  _210
REMARK   85  A    between atoms: _210  and  _211
REMARK   86  A    between atoms: _211  and  _212
REMARK   87  A    between atoms: _212  and  _213
REMARK   88  A    between atoms: _217  and  _219
REMARK   89  A    between atoms: _219  and  _220
REMARK   90  A    between atoms: _219  and  _222
REMARK   91  A    between atoms: _225  and  _227
REMARK   92  A    between atoms: _227  and  _228
REMARK   93  A    between atoms: _231  and  _233
REMARK   94  A    between atoms: _233  and  _234
REMARK   95  A    between atoms: _233  and  _236
REMARK   96  A    between atoms: _236  and  _237
REMARK   97  A    between atoms: _240  and  _242
REMARK   98  A    between atoms: _242  and  _243
REMARK   99  A    between atoms: _242  and  _245
REMARK  100  A    between atoms: _245  and  _246
REMARK  101  A    between atoms: _246  and  _247
REMARK  102  A    between atoms: _250  and  _252
REMARK  103  A    between atoms: _252  and  _253
REMARK  104  A    between atoms: _252  and  _255
REMARK  105  A    between atoms: _258  and  _260
REMARK  106  A    between atoms: _260  and  _261
REMARK  107  A    between atoms: _260  and  _263
REMARK  108  A    between atoms: _263  and  _264
REMARK  109  A    between atoms: _267  and  _269
REMARK  110  A    between atoms: _269  and  _270
REMARK  111  A    between atoms: _269  and  _272
REMARK  112  A    between atoms: _272  and  _273
REMARK  113  A    between atoms: _273  and  _274
REMARK  114  A    between atoms: _276  and  _278
REMARK  115  A    between atoms: _278  and  _279
REMARK  116  A    between atoms: _278  and  _281
REMARK  117  A    between atoms: _281  and  _282
REMARK  118  A    between atoms: _285  and  _287
REMARK  119  A    between atoms: _287  and  _288
REMARK  120  A    between atoms: _287  and  _290
REMARK  121  A    between atoms: _290  and  _291
REMARK  122  A    between atoms: _291  and  _292
REMARK  123  A    between atoms: _292  and  _293
REMARK  124  A    between atoms: _302  and  _304
REMARK  125  A    between atoms: _304  and  _305
REMARK  126  A    between atoms: _304  and  _307
REMARK  127  A    between atoms: _307  and  _308
REMARK  128  A    between atoms: _310  and  _312
REMARK  129  A    between atoms: _312  and  _313
REMARK  130  A    between atoms: _312  and  _315
REMARK  131  A    between atoms: _315  and  _316
REMARK  132  A    between atoms: _321  and  _323
REMARK  133  A    between atoms: _323  and  _324
REMARK  134  A    between atoms: _323  and  _326
REMARK  135  A    between atoms: _326  and  _327
REMARK  136  A    between atoms: _327  and  _328
REMARK  137  A    between atoms: _331  and  _333
REMARK  138  A    between atoms: _333  and  _334
REMARK  139  A    between atoms: _333  and  _336
REMARK  140  A    between atoms: _336  and  _337
REMARK  141  A    between atoms: _339  and  _341
REMARK  142  A    between atoms: _341  and  _342
REMARK  143  A    between atoms: _341  and  _344
REMARK  144  A    between atoms: _344  and  _345
REMARK  145  A    between atoms: _351  and  _353
REMARK  146  A    between atoms: _353  and  _354
REMARK  147  A    between atoms: _353  and  _356
REMARK  148  A    between atoms: _356  and  _357
REMARK  149  A    between atoms: _359  and  _361
REMARK  150  A    between atoms: _361  and  _362
REMARK  151  A    between atoms: _361  and  _364
REMARK  152  A    between atoms: _364  and  _365
REMARK  153  A    between atoms: _375  and  _377
REMARK  154  A    between atoms: _377  and  _378
REMARK  155  A    between atoms: _377  and  _380
REMARK  156  A    between atoms: _380  and  _381
REMARK  157  A    between atoms: _384  and  _386
REMARK  158  A    between atoms: _386  and  _387
REMARK  159  A    between atoms: _386  and  _389
REMARK  160  A    between atoms: _391  and  _393
REMARK  161  A    between atoms: _393  and  _394
REMARK  162  A    between atoms: _393  and  _396
REMARK  163  A    between atoms: _396  and  _397
REMARK  164  A    between atoms: _402  and  _403
REMARK  165  A    between atoms: _405  and  _407
REMARK  166  A    between atoms: _407  and  _408
REMARK  167  A    between atoms: _407  and  _410
REMARK  168  A    between atoms: _410  and  _411
REMARK  169  A    between atoms: _411  and  _412
REMARK  170  A    between atoms: _412  and  _413
REMARK  171  A    between atoms: _413  and  _414
REMARK  172  A    between atoms: _418  and  _420
REMARK  173  A    between atoms: _420  and  _421
REMARK  174  A    between atoms: _420  and  _423
REMARK  175  A    between atoms: _423  and  _424
REMARK  176  A    between atoms: _429  and  _430
REMARK  177  A    between atoms: _432  and  _434
REMARK  178  A    between atoms: _434  and  _435
REMARK  179  A    between atoms: _434  and  _437
REMARK  180  A    between atoms: _437  and  _438
REMARK  181  A    between atoms: _438  and  _439
REMARK  182  A    between atoms: _439  and  _440
REMARK  183  A    between atoms: _449  and  _451
REMARK  184  A    between atoms: _451  and  _452
REMARK  185  A    between atoms: _451  and  _454
REMARK  186  A    between atoms: _457  and  _459
REMARK  187  A    between atoms: _459  and  _460
REMARK  188  A    between atoms: _459  and  _462
REMARK  189  A    between atoms: _462  and  _463
REMARK  190  A    between atoms: _466  and  _468
REMARK  191  A    between atoms: _468  and  _469
REMARK  192  A    between atoms: _468  and  _471
REMARK  193  A    between atoms: _474  and  _476
REMARK  194  A    between atoms: _476  and  _477
REMARK  195  A    between atoms: _476  and  _479
REMARK  196  A    between atoms: _479  and  _480
REMARK  197  A    between atoms: _483  and  _485
REMARK  198  A    between atoms: _485  and  _486
REMARK  199  A    between atoms: _489  and  _491
REMARK  200  A    between atoms: _491  and  _492
REMARK  201  A    between atoms: _494  and  _496
REMARK  202  A    between atoms: _496  and  _497
REMARK  203  A    between atoms: _496  and  _499
REMARK  204  A    between atoms: _499  and  _500
REMARK  205  A    between atoms: _505  and  _507
REMARK  206  A    between atoms: _507  and  _508
REMARK  207  A    between atoms: _507  and  _510
REMARK  208  A    between atoms: _510  and  _511
REMARK  209  A    between atoms: _513  and  _515
REMARK  210  A    between atoms: _515  and  _516
REMARK  211  A    between atoms: _515  and  _518
REMARK  212  A    between atoms: _518  and  _519
REMARK  213  A    between atoms: _522  and  _524
REMARK  214  A    between atoms: _524  and  _525
REMARK  215  A    between atoms: _524  and  _527
REMARK  216  A    between atoms: _527  and  _528
REMARK  217  A    between atoms: _531  and  _533
REMARK  218  A    between atoms: _533  and  _534
REMARK  219  A    between atoms: _533  and  _536
REMARK  220  A    between atoms: _536  and  _537
REMARK  221  A    between atoms: _540  and  _542
REMARK  222  A    between atoms: _542  and  _543
REMARK  223  A    between atoms: _542  and  _545
REMARK  224  A    between atoms: _545  and  _546
REMARK  225  A    between atoms: _549  and  _551
REMARK  226  A    between atoms: _551  and  _552
REMARK  227  A    between atoms: _551  and  _554
REMARK  228  A    between atoms: _554  and  _555
REMARK  229  A    between atoms: _555  and  _556
REMARK  230  A    between atoms: _561  and  _563
REMARK  231  A    between atoms: _563  and  _564
REMARK  232  A    between atoms: _563  and  _566
REMARK  233  A    between atoms: _566  and  _567
REMARK  234  A    between atoms: _570  and  _572
REMARK  235  A    between atoms: _572  and  _573
REMARK  236  A    between atoms: _572  and  _575
REMARK  237  A    between atoms: _575  and  _576
REMARK  238  A    between atoms: _581  and  _583
REMARK  239  A    between atoms: _583  and  _584
REMARK  240  A    between atoms: _583  and  _586
REMARK  241  A    between atoms: _586  and  _587
REMARK  242  A    between atoms: _589  and  _591
REMARK  243  A    between atoms: _591  and  _592
REMARK  244  A    between atoms: _591  and  _594
REMARK  245  A    between atoms: _594  and  _595
REMARK  246  A    between atoms: _595  and  _596
REMARK  247  A    between atoms: _601  and  _603
REMARK  248  A    between atoms: _603  and  _604
REMARK  249  A    between atoms: _603  and  _606
REMARK  250  A    between atoms: _606  and  _607
REMARK  251  A    between atoms: _612  and  _613
REMARK  252  A    between atoms: _615  and  _617
REMARK  253  A    between atoms: _617  and  _618
REMARK  254  A    between atoms: _617  and  _620
REMARK  255  A    between atoms: _620  and  _621
REMARK  256  A    between atoms: _624  and  _626
REMARK  257  A    between atoms: _626  and  _627
REMARK  258  A    between atoms: _626  and  _629
REMARK  259  A    between atoms: _629  and  _630
REMARK  260  A    between atoms: _630  and  _631
REMARK  261  A    between atoms: _631  and  _632
REMARK  262  A    between atoms: _632  and  _633
REMARK  263  A    between atoms: _637  and  _639
REMARK  264  A    between atoms: _639  and  _640
REMARK  265  A    between atoms: _639  and  _642
REMARK  266  A    between atoms: _642  and  _643
REMARK  267  A    between atoms: _646  and  _648
REMARK  268  A    between atoms: _648  and  _649
REMARK  269  A    between atoms: _648  and  _651
REMARK  270  A    between atoms: _651  and  _652
REMARK  271  A    between atoms: _655  and  _657
REMARK  272  A    between atoms: _657  and  _658
REMARK  273  A    between atoms: _657  and  _660
REMARK  274  A    between atoms: _663  and  _665
REMARK  275  A    between atoms: _665  and  _666
REMARK  276  A    between atoms: _665  and  _668
REMARK  277  A    between atoms: _668  and  _669
REMARK                            x       y       z     vdW  Elec       q    Type
REMARK                         _______ _______ _______ _____ _____    ______ ____
ROOT
ATOM      1  O   HOH     1      14.933  12.101  41.867  0.00  0.00    +0.000 OA
ENDROOT
TORSDOF 0
REMARK  Name = ../refined-set-2016/1s19/1s19_pocket.pdb
REMARK  277 active torsions:
REMARK  status: ('A' for Active; 'I' for Inactive)
REMARK    1  A    between atoms: _1  and  _3
REMARK    2  A    between atoms: _3  and  _4
REMARK    3  A    between atoms: _3  and  _6
REMARK    4  A    between atoms: _6  and  _7
REMARK    5  A    between atoms: _10  and  _12
REMARK    6  A    between atoms: _12  and  _13
REMARK    7  A    between atoms: _12  and  _15
REMARK    8  A    between atoms: _15  and  _16
REMARK    9  A    between atoms: _21  and  _22
REMARK   10  A    between atoms: _24  and  _26
REMARK   11  A    between atoms: _26  and  _27
REMARK   12  A    between atoms: _26  and  _29
REMARK   13  A    between atoms: _29  and  _30
REMARK   14  A    between atoms: _33  and  _35
REMARK   15  A    between atoms: _35  and  _36
REMARK   16  A    between atoms: _35  and  _38
REMARK   17  A    between atoms: _38  and  _39
REMARK   18  A    between atoms: _44  and  _45
REMARK   19  A    between atoms: _47  and  _49
REMARK   20  A    between atoms: _49  and  _50
REMARK   21  A    between atoms: _49  and  _52
REMARK   22  A    between atoms: _52  and  _53
REMARK   23  A    between atoms: _59  and  _61
REMARK   24  A    between atoms: _61  and  _62
REMARK   25  A    between atoms: _61  and  _64
REMARK   26  A    between atoms: _64  and  _65
REMARK   27  A    between atoms: _71  and  _73
REMARK   28  A    between atoms: _73  and  _74
REMARK   29  A    between atoms: _73  and  _76
REMARK   30  A    between atoms: _76  and  _77
REMARK   31  A    between atoms: _77  and  _78
REMARK   32  A    between atoms: _78  and  _79
REMARK   33  A    between atoms: _88  and  _90
REMARK   34  A    between atoms: _90  and  _91
REMARK   35  A    between atoms: _90  and  _93
REMARK   36  A    between atoms: _93  and  _94
REMARK   37  A    between atoms: _94  and  _95
REMARK   38  A    between atoms: _97  and  _99
REMARK   39  A    between atoms: _99  and  _100
REMARK   40  A    between atoms: _99  and  _102
REMARK   41  A    between atoms: _102  and  _103
REMARK   42  A    between atoms: _107  and  _108
REMARK   43  A    between atoms: _113  and  _115
REMARK   44  A    between atoms: _115  and  _116
REMARK   45  A    between atoms: _115  and  _118
REMARK   46  A    between atoms: _118  and  _119
REMARK   47  A    between atoms: _124  and  _126
REMARK   48  A    between atoms: _126  and  _127
REMARK   49  A    between atoms: _126  and  _129
REMARK   50  A    between atoms: _129  and  _130
REMARK   51  A    between atoms: _133  and  _135
REMARK   52  A    between atoms: _135  and  _136
REMARK   53  A    between atoms: _139  and  _141
REMARK   54  A    between atoms: _141  and  _142
REMARK   55  A    between atoms: _141  and  _144
REMARK   56  A    between atoms: _144  and  _145
REMARK   57  A    between atoms: _148  and  _150
REMARK   58  A    between atoms: _150  and  _151
REMARK   59  A    between atoms: _150  and  _153
REMARK   60  A    between atoms: _153  and  _154
REMARK   61  A    between atoms: _157  and  _159
REMARK   62  A    between atoms: _159  and  _160
REMARK   63  A    between atoms: _159  and  _162
REMARK   64  A    between atoms: _165  and  _167
REMARK   65  A    between atoms: _167  and  _168
REMARK   66  A    between atoms: _167  and  _170
REMARK   67  A    between atoms: _170  and  _171
REMARK   68  A    between atoms: _173  and  _175
REMARK   69  A    between atoms: _175  and  _176
REMARK   70  A    between atoms: _175  and  _178
REMARK   71  A    between atoms: _178  and  _179
REMARK   72  A    between atoms: _184  and  _185
REMARK   73  A    between atoms: _187  and  _189
REMARK   74  A    between atoms: _189  and  _190
REMARK   75  A    between atoms: _189  and  _192
REMARK   76  A    between atoms: _192  and  _193
REMARK   77  A    between atoms: _195  and  _197
REMARK   78  A    between atoms: _197  and  _198
REMARK   79  A    between atoms: _197  and  _200
REMARK   80  A    between atoms: _200  and  _201
REMARK   81  A    between atoms: _204  and  _206
REMARK   82  A    between atoms: _206  and  _207
REMARK   83  A    between atoms: _206  and  _209
REMARK   84  A    between atoms: _209  and  _210
REMARK   85  A    between atoms: _210  and  _211
REMARK   86  A    between atoms: _211  and  _212
REMARK   87  A    between atoms: _212  and  _213
REMARK   88  A    between atoms: _217  and  _219
REMARK   89  A    between atoms: _219  and  _220
REMARK   90  A    between atoms: _219  and  _222
REMARK   91  A    between atoms: _225  and  _227
REMARK   92  A    between atoms: _227  and  _228
REMARK   93  A    between atoms: _231  and  _233
REMARK   94  A    between atoms: _233  and  _234
REMARK   95  A    between atoms: _233  and  _236
REMARK   96  A    between atoms: _236  and  _237
REMARK   97  A    between atoms: _240  and  _242
REMARK   98  A    between atoms: _242  and  _243
REMARK   99  A    between atoms: _242  and  _245
REMARK  100  A    between atoms: _245  and  _246
REMARK  101  A    between atoms: _246  and  _247
REMARK  102  A    between atoms: _250  and  _252
REMARK  103  A    between atoms: _252  and  _253
REMARK  104  A    between atoms: _252  and  _255
REMARK  105  A    between atoms: _258  and  _260
REMARK  106  A    between atoms: _260  and  _261
REMARK  107  A    between atoms: _260  and  _263
REMARK  108  A    between atoms: _263  and  _264
REMARK  109  A    between atoms: _267  and  _269
REMARK  110  A    between atoms: _269  and  _270
REMARK  111  A    between atoms: _269  and  _272
REMARK  112  A    between atoms: _272  and  _273
REMARK  113  A    between atoms: _273  and  _274
REMARK  114  A    between atoms: _276  and  _278
REMARK  115  A    between atoms: _278  and  _279
REMARK  116  A    between atoms: _278  and  _281
REMARK  117  A    between atoms: _281  and  _282
REMARK  118  A    between atoms: _285  and  _287
REMARK  119  A    between atoms: _287  and  _288
REMARK  120  A    between atoms: _287  and  _290
REMARK  121  A    between atoms: _290  and  _291
REMARK  122  A    between atoms: _291  and  _292
REMARK  123  A    between atoms: _292  and  _293
REMARK  124  A    between atoms: _302  and  _304
REMARK  125  A    between atoms: _304  and  _305
REMARK  126  A    between atoms: _304  and  _307
REMARK  127  A    between atoms: _307  and  _308
REMARK  128  A    between atoms: _310  and  _312
REMARK  129  A    between atoms: _312  and  _313
REMARK  130  A    between atoms: _312  and  _315
REMARK  131  A    between atoms: _315  and  _316
REMARK  132  A    between atoms: _321  and  _323
REMARK  133  A    between atoms: _323  and  _324
REMARK  134  A    between atoms: _323  and  _326
REMARK  135  A    between atoms: _326  and  _327
REMARK  136  A    between atoms: _327  and  _328
REMARK  137  A    between atoms: _331  and  _333
REMARK  138  A    between atoms: _333  and  _334
REMARK  139  A    between atoms: _333  and  _336
REMARK  140  A    between atoms: _336  and  _337
REMARK  141  A    between atoms: _339  and  _341
REMARK  142  A    between atoms: _341  and  _342
REMARK  143  A    between atoms: _341  and  _344
REMARK  144  A    between atoms: _344  and  _345
REMARK  145  A    between atoms: _351  and  _353
REMARK  146  A    between atoms: _353  and  _354
REMARK  147  A    between atoms: _353  and  _356
REMARK  148  A    between atoms: _356  and  _357
REMARK  149  A    between atoms: _359  and  _361
REMARK  150  A    between atoms: _361  and  _362
REMARK  151  A    between atoms: _361  and  _364
REMARK  152  A    between atoms: _364  and  _365
REMARK  153  A    between atoms: _375  and  _377
REMARK  154  A    between atoms: _377  and  _378
REMARK  155  A    between atoms: _377  and  _380
REMARK  156  A    between atoms: _380  and  _381
REMARK  157  A    between atoms: _384  and  _386
REMARK  158  A    between atoms: _386  and  _387
REMARK  159  A    between atoms: _386  and  _389
REMARK  160  A    between atoms: _391  and  _393
REMARK  161  A    between atoms: _393  and  _394
REMARK  162  A    between atoms: _393  and  _396
REMARK  163  A    between atoms: _396  and  _397
REMARK  164  A    between atoms: _402  and  _403
REMARK  165  A    between atoms: _405  and  _407
REMARK  166  A    between atoms: _407  and  _408
REMARK  167  A    between atoms: _407  and  _410
REMARK  168  A    between atoms: _410  and  _411
REMARK  169  A    between atoms: _411  and  _412
REMARK  170  A    between atoms: _412  and  _413
REMARK  171  A    between atoms: _413  and  _414
REMARK  172  A    between atoms: _418  and  _420
REMARK  173  A    between atoms: _420  and  _421
REMARK  174  A    between atoms: _420  and  _423
REMARK  175  A    between atoms: _423  and  _424
REMARK  176  A    between atoms: _429  and  _430
REMARK  177  A    between atoms: _432  and  _434
REMARK  178  A    between atoms: _434  and  _435
REMARK  179  A    between atoms: _434  and  _437
REMARK  180  A    between atoms: _437  and  _438
REMARK  181  A    between atoms: _438  and  _439
REMARK  182  A    between atoms: _439  and  _440
REMARK  183  A    between atoms: _449  and  _451
REMARK  184  A    between atoms: _451  and  _452
REMARK  185  A    between atoms: _451  and  _454
REMARK  186  A    between atoms: _457  and  _459
REMARK  187  A    between atoms: _459  and  _460
REMARK  188  A    between atoms: _459  and  _462
REMARK  189  A    between atoms: _462  and  _463
REMARK  190  A    between atoms: _466  and  _468
REMARK  191  A    between atoms: _468  and  _469
REMARK  192  A    between atoms: _468  and  _471
REMARK  193  A    between atoms: _474  and  _476
REMARK  194  A    between atoms: _476  and  _477
REMARK  195  A    between atoms: _476  and  _479
REMARK  196  A    between atoms: _479  and  _480
REMARK  197  A    between atoms: _483  and  _485
REMARK  198  A    between atoms: _485  and  _486
REMARK  199  A    between atoms: _489  and  _491
REMARK  200  A    between atoms: _491  and  _492
REMARK  201  A    between atoms: _494  and  _496
REMARK  202  A    between atoms: _496  and  _497
REMARK  203  A    between atoms: _496  and  _499
REMARK  204  A    between atoms: _499  and  _500
REMARK  205  A    between atoms: _505  and  _507
REMARK  206  A    between atoms: _507  and  _508
REMARK  207  A    between atoms: _507  and  _510
REMARK  208  A    between atoms: _510  and  _511
REMARK  209  A    between atoms: _513  and  _515
REMARK  210  A    between atoms: _515  and  _516
REMARK  211  A    between atoms: _515  and  _518
REMARK  212  A    between atoms: _518  and  _519
REMARK  213  A    between atoms: _522  and  _524
REMARK  214  A    between atoms: _524  and  _525
REMARK  215  A    between atoms: _524  and  _527
REMARK  216  A    between atoms: _527  and  _528
REMARK  217  A    between atoms: _531  and  _533
REMARK  218  A    between atoms: _533  and  _534
REMARK  219  A    between atoms: _533  and  _536
REMARK  220  A    between atoms: _536  and  _537
REMARK  221  A    between atoms: _540  and  _542
REMARK  222  A    between atoms: _542  and  _543
REMARK  223  A    between atoms: _542  and  _545
REMARK  224  A    between atoms: _545  and  _546
REMARK  225  A    between atoms: _549  and  _551
REMARK  226  A    between atoms: _551  and  _552
REMARK  227  A    between atoms: _551  and  _554
REMARK  228  A    between atoms: _554  and  _555
REMARK  229  A    between atoms: _555  and  _556
REMARK  230  A    between atoms: _561  and  _563
REMARK  231  A    between atoms: _563  and  _564
REMARK  232  A    between atoms: _563  and  _566
REMARK  233  A    between atoms: _566  and  _567
REMARK  234  A    between atoms: _570  and  _572
REMARK  235  A    between atoms: _572  and  _573
REMARK  236  A    between atoms: _572  and  _575
REMARK  237  A    between atoms: _575  and  _576
REMARK  238  A    between atoms: _581  and  _583
REMARK  239  A    between atoms: _583  and  _584
REMARK  240  A    between atoms: _583  and  _586
REMARK  241  A    between atoms: _586  and  _587
REMARK  242  A    between atoms: _589  and  _591
REMARK  243  A    between atoms: _591  and  _592
REMARK  244  A    between atoms: _591  and  _594
REMARK  245  A    between atoms: _594  and  _595
REMARK  246  A    between atoms: _595  and  _596
REMARK  247  A    between atoms: _601  and  _603
REMARK  248  A    between atoms: _603  and  _604
REMARK  249  A    between atoms: _603  and  _606
REMARK  250  A    between atoms: _606  and  _607
REMARK  251  A    between atoms: _612  and  _613
REMARK  252  A    between atoms: _615  and  _617
REMARK  253  A    between atoms: _617  and  _618
REMARK  254  A    between atoms: _617  and  _620
REMARK  255  A    between atoms: _620  and  _621
REMARK  256  A    between atoms: _624  and  _626
REMARK  257  A    between atoms: _626  and  _627
REMARK  258  A    between atoms: _626  and  _629
REMARK  259  A    between atoms: _629  and  _630
REMARK  260  A    between atoms: _630  and  _631
REMARK  261  A    between atoms: _631  and  _632
REMARK  262  A    between atoms: _632  and  _633
REMARK  263  A    between atoms: _637  and  _639
REMARK  264  A    between atoms: _639  and  _640
REMARK  265  A    between atoms: _639  and  _642
REMARK  266  A    between atoms: _642  and  _643
REMARK  267  A    between atoms: _646  and  _648
REMARK  268  A    between atoms: _648  and  _649
REMARK  269  A    between atoms: _648  and  _651
REMARK  270  A    between atoms: _651  and  _652
REMARK  271  A    between atoms: _655  and  _657
REMARK  272  A    between atoms: _657  and  _658
REMARK  273  A    between atoms: _657  and  _660
REMARK  274  A    between atoms: _663  and  _665
REMARK  275  A    between atoms: _665  and  _666
REMARK  276  A    between atoms: _665  and  _668
REMARK  277  A    between atoms: _668  and  _669
REMARK                            x       y       z     vdW  Elec       q    Type
REMARK                         _______ _______ _______ _____ _____    ______ ____
ROOT
ATOM      1  O   HOH     1      13.913  14.509  42.824  0.00  0.00    +0.000 OA
ENDROOT
TORSDOF 0
REMARK  Name = ../refined-set-2016/1s19/1s19_pocket.pdb
REMARK  277 active torsions:
REMARK  status: ('A' for Active; 'I' for Inactive)
REMARK    1  A    between atoms: _1  and  _3
REMARK    2  A    between atoms: _3  and  _4
REMARK    3  A    between atoms: _3  and  _6
REMARK    4  A    between atoms: _6  and  _7
REMARK    5  A    between atoms: _10  and  _12
REMARK    6  A    between atoms: _12  and  _13
REMARK    7  A    between atoms: _12  and  _15
REMARK    8  A    between atoms: _15  and  _16
REMARK    9  A    between atoms: _21  and  _22
REMARK   10  A    between atoms: _24  and  _26
REMARK   11  A    between atoms: _26  and  _27
REMARK   12  A    between atoms: _26  and  _29
REMARK   13  A    between atoms: _29  and  _30
REMARK   14  A    between atoms: _33  and  _35
REMARK   15  A    between atoms: _35  and  _36
REMARK   16  A    between atoms: _35  and  _38
REMARK   17  A    between atoms: _38  and  _39
REMARK   18  A    between atoms: _44  and  _45
REMARK   19  A    between atoms: _47  and  _49
REMARK   20  A    between atoms: _49  and  _50
REMARK   21  A    between atoms: _49  and  _52
REMARK   22  A    between atoms: _52  and  _53
REMARK   23  A    between atoms: _59  and  _61
REMARK   24  A    between atoms: _61  and  _62
REMARK   25  A    between atoms: _61  and  _64
REMARK   26  A    between atoms: _64  and  _65
REMARK   27  A    between atoms: _71  and  _73
REMARK   28  A    between atoms: _73  and  _74
REMARK   29  A    between atoms: _73  and  _76
REMARK   30  A    between atoms: _76  and  _77
REMARK   31  A    between atoms: _77  and  _78
REMARK   32  A    between atoms: _78  and  _79
REMARK   33  A    between atoms: _88  and  _90
REMARK   34  A    between atoms: _90  and  _91
REMARK   35  A    between atoms: _90  and  _93
REMARK   36  A    between atoms: _93  and  _94
REMARK   37  A    between atoms: _94  and  _95
REMARK   38  A    between atoms: _97  and  _99
REMARK   39  A    between atoms: _99  and  _100
REMARK   40  A    between atoms: _99  and  _102
REMARK   41  A    between atoms: _102  and  _103
REMARK   42  A    between atoms: _107  and  _108
REMARK   43  A    between atoms: _113  and  _115
REMARK   44  A    between atoms: _115  and  _116
REMARK   45  A    between atoms: _115  and  _118
REMARK   46  A    between atoms: _118  and  _119
REMARK   47  A    between atoms: _124  and  _126
REMARK   48  A    between atoms: _126  and  _127
REMARK   49  A    between atoms: _126  and  _129
REMARK   50  A    between atoms: _129  and  _130
REMARK   51  A    between atoms: _133  and  _135
REMARK   52  A    between atoms: _135  and  _136
REMARK   53  A    between atoms: _139  and  _141
REMARK   54  A    between atoms: _141  and  _142
REMARK   55  A    between atoms: _141  and  _144
REMARK   56  A    between atoms: _144  and  _145
REMARK   57  A    between atoms: _148  and  _150
REMARK   58  A    between atoms: _150  and  _151
REMARK   59  A    between atoms: _150  and  _153
REMARK   60  A    between atoms: _153  and  _154
REMARK   61  A    between atoms: _157  and  _159
REMARK   62  A    between atoms: _159  and  _160
REMARK   63  A    between atoms: _159  and  _162
REMARK   64  A    between atoms: _165  and  _167
REMARK   65  A    between atoms: _167  and  _168
REMARK   66  A    between atoms: _167  and  _170
REMARK   67  A    between atoms: _170  and  _171
REMARK   68  A    between atoms: _173  and  _175
REMARK   69  A    between atoms: _175  and  _176
REMARK   70  A    between atoms: _175  and  _178
REMARK   71  A    between atoms: _178  and  _179
REMARK   72  A    between atoms: _184  and  _185
REMARK   73  A    between atoms: _187  and  _189
REMARK   74  A    between atoms: _189  and  _190
REMARK   75  A    between atoms: _189  and  _192
REMARK   76  A    between atoms: _192  and  _193
REMARK   77  A    between atoms: _195  and  _197
REMARK   78  A    between atoms: _197  and  _198
REMARK   79  A    between atoms: _197  and  _200
REMARK   80  A    between atoms: _200  and  _201
REMARK   81  A    between atoms: _204  and  _206
REMARK   82  A    between atoms: _206  and  _207
REMARK   83  A    between atoms: _206  and  _209
REMARK   84  A    between atoms: _209  and  _210
REMARK   85  A    between atoms: _210  and  _211
REMARK   86  A    between atoms: _211  and  _212
REMARK   87  A    between atoms: _212  and  _213
REMARK   88  A    between atoms: _217  and  _219
REMARK   89  A    between atoms: _219  and  _220
REMARK   90  A    between atoms: _219  and  _222
REMARK   91  A    between atoms: _225  and  _227
REMARK   92  A    between atoms: _227  and  _228
REMARK   93  A    between atoms: _231  and  _233
REMARK   94  A    between atoms: _233  and  _234
REMARK   95  A    between atoms: _233  and  _236
REMARK   96  A    between atoms: _236  and  _237
REMARK   97  A    between atoms: _240  and  _242
REMARK   98  A    between atoms: _242  and  _243
REMARK   99  A    between atoms: _242  and  _245
REMARK  100  A    between atoms: _245  and  _246
REMARK  101  A    between atoms: _246  and  _247
REMARK  102  A    between atoms: _250  and  _252
REMARK  103  A    between atoms: _252  and  _253
REMARK  104  A    between atoms: _252  and  _255
REMARK  105  A    between atoms: _258  and  _260
REMARK  106  A    between atoms: _260  and  _261
REMARK  107  A    between atoms: _260  and  _263
REMARK  108  A    between atoms: _263  and  _264
REMARK  109  A    between atoms: _267  and  _269
REMARK  110  A    between atoms: _269  and  _270
REMARK  111  A    between atoms: _269  and  _272
REMARK  112  A    between atoms: _272  and  _273
REMARK  113  A    between atoms: _273  and  _274
REMARK  114  A    between atoms: _276  and  _278
REMARK  115  A    between atoms: _278  and  _279
REMARK  116  A    between atoms: _278  and  _281
REMARK  117  A    between atoms: _281  and  _282
REMARK  118  A    between atoms: _285  and  _287
REMARK  119  A    between atoms: _287  and  _288
REMARK  120  A    between atoms: _287  and  _290
REMARK  121  A    between atoms: _290  and  _291
REMARK  122  A    between atoms: _291  and  _292
REMARK  123  A    between atoms: _292  and  _293
REMARK  124  A    between atoms: _302  and  _304
REMARK  125  A    between atoms: _304  and  _305
REMARK  126  A    between atoms: _304  and  _307
REMARK  127  A    between atoms: _307  and  _308
REMARK  128  A    between atoms: _310  and  _312
REMARK  129  A    between atoms: _312  and  _313
REMARK  130  A    between atoms: _312  and  _315
REMARK  131  A    between atoms: _315  and  _316
REMARK  132  A    between atoms: _321  and  _323
REMARK  133  A    between atoms: _323  and  _324
REMARK  134  A    between atoms: _323  and  _326
REMARK  135  A    between atoms: _326  and  _327
REMARK  136  A    between atoms: _327  and  _328
REMARK  137  A    between atoms: _331  and  _333
REMARK  138  A    between atoms: _333  and  _334
REMARK  139  A    between atoms: _333  and  _336
REMARK  140  A    between atoms: _336  and  _337
REMARK  141  A    between atoms: _339  and  _341
REMARK  142  A    between atoms: _341  and  _342
REMARK  143  A    between atoms: _341  and  _344
REMARK  144  A    between atoms: _344  and  _345
REMARK  145  A    between atoms: _351  and  _353
REMARK  146  A    between atoms: _353  and  _354
REMARK  147  A    between atoms: _353  and  _356
REMARK  148  A    between atoms: _356  and  _357
REMARK  149  A    between atoms: _359  and  _361
REMARK  150  A    between atoms: _361  and  _362
REMARK  151  A    between atoms: _361  and  _364
REMARK  152  A    between atoms: _364  and  _365
REMARK  153  A    between atoms: _375  and  _377
REMARK  154  A    between atoms: _377  and  _378
REMARK  155  A    between atoms: _377  and  _380
REMARK  156  A    between atoms: _380  and  _381
REMARK  157  A    between atoms: _384  and  _386
REMARK  158  A    between atoms: _386  and  _387
REMARK  159  A    between atoms: _386  and  _389
REMARK  160  A    between atoms: _391  and  _393
REMARK  161  A    between atoms: _393  and  _394
REMARK  162  A    between atoms: _393  and  _396
REMARK  163  A    between atoms: _396  and  _397
REMARK  164  A    between atoms: _402  and  _403
REMARK  165  A    between atoms: _405  and  _407
REMARK  166  A    between atoms: _407  and  _408
REMARK  167  A    between atoms: _407  and  _410
REMARK  168  A    between atoms: _410  and  _411
REMARK  169  A    between atoms: _411  and  _412
REMARK  170  A    between atoms: _412  and  _413
REMARK  171  A    between atoms: _413  and  _414
REMARK  172  A    between atoms: _418  and  _420
REMARK  173  A    between atoms: _420  and  _421
REMARK  174  A    between atoms: _420  and  _423
REMARK  175  A    between atoms: _423  and  _424
REMARK  176  A    between atoms: _429  and  _430
REMARK  177  A    between atoms: _432  and  _434
REMARK  178  A    between atoms: _434  and  _435
REMARK  179  A    between atoms: _434  and  _437
REMARK  180  A    between atoms: _437  and  _438
REMARK  181  A    between atoms: _438  and  _439
REMARK  182  A    between atoms: _439  and  _440
REMARK  183  A    between atoms: _449  and  _451
REMARK  184  A    between atoms: _451  and  _452
REMARK  185  A    between atoms: _451  and  _454
REMARK  186  A    between atoms: _457  and  _459
REMARK  187  A    between atoms: _459  and  _460
REMARK  188  A    between atoms: _459  and  _462
REMARK  189  A    between atoms: _462  and  _463
REMARK  190  A    between atoms: _466  and  _468
REMARK  191  A    between atoms: _468  and  _469
REMARK  192  A    between atoms: _468  and  _471
REMARK  193  A    between atoms: _474  and  _476
REMARK  194  A    between atoms: _476  and  _477
REMARK  195  A    between atoms: _476  and  _479
REMARK  196  A    between atoms: _479  and  _480
REMARK  197  A    between atoms: _483  and  _485
REMARK  198  A    between atoms: _485  and  _486
REMARK  199  A    between atoms: _489  and  _491
REMARK  200  A    between atoms: _491  and  _492
REMARK  201  A    between atoms: _494  and  _496
REMARK  202  A    between atoms: _496  and  _497
REMARK  203  A    between atoms: _496  and  _499
REMARK  204  A    between atoms: _499  and  _500
REMARK  205  A    between atoms: _505  and  _507
REMARK  206  A    between atoms: _507  and  _508
REMARK  207  A    between atoms: _507  and  _510
REMARK  208  A    between atoms: _510  and  _511
REMARK  209  A    between atoms: _513  and  _515
REMARK  210  A    between atoms: _515  and  _516
REMARK  211  A    between atoms: _515  and  _518
REMARK  212  A    between atoms: _518  and  _519
REMARK  213  A    between atoms: _522  and  _524
REMARK  214  A    between atoms: _524  and  _525
REMARK  215  A    between atoms: _524  and  _527
REMARK  216  A    between atoms: _527  and  _528
REMARK  217  A    between atoms: _531  and  _533
REMARK  218  A    between atoms: _533  and  _534
REMARK  219  A    between atoms: _533  and  _536
REMARK  220  A    between atoms: _536  and  _537
REMARK  221  A    between atoms: _540  and  _542
REMARK  222  A    between atoms: _542  and  _543
REMARK  223  A    between atoms: _542  and  _545
REMARK  224  A    between atoms: _545  and  _546
REMARK  225  A    between atoms: _549  and  _551
REMARK  226  A    between atoms: _551  and  _552
REMARK  227  A    between atoms: _551  and  _554
REMARK  228  A    between atoms: _554  and  _555
REMARK  229  A    between atoms: _555  and  _556
REMARK  230  A    between atoms: _561  and  _563
REMARK  231  A    between atoms: _563  and  _564
REMARK  232  A    between atoms: _563  and  _566
REMARK  233  A    between atoms: _566  and  _567
REMARK  234  A    between atoms: _570  and  _572
REMARK  235  A    between atoms: _572  and  _573
REMARK  236  A    between atoms: _572  and  _575
REMARK  237  A    between atoms: _575  and  _576
REMARK  238  A    between atoms: _581  and  _583
REMARK  239  A    between atoms: _583  and  _584
REMARK  240  A    between atoms: _583  and  _586
REMARK  241  A    between atoms: _586  and  _587
REMARK  242  A    between atoms: _589  and  _591
REMARK  243  A    between atoms: _591  and  _592
REMARK  244  A    between atoms: _591  and  _594
REMARK  245  A    between atoms: _594  and  _595
REMARK  246  A    between atoms: _595  and  _596
REMARK  247  A    between atoms: _601  and  _603
REMARK  248  A    between atoms: _603  and  _604
REMARK  249  A    between atoms: _603  and  _606
REMARK  250  A    between atoms: _606  and  _607
REMARK  251  A    between atoms: _612  and  _613
REMARK  252  A    between atoms: _615  and  _617
REMARK  253  A    between atoms: _617  and  _618
REMARK  254  A    between atoms: _617  and  _620
REMARK  255  A    between atoms: _620  and  _621
REMARK  256  A    between atoms: _624  and  _626
REMARK  257  A    between atoms: _626  and  _627
REMARK  258  A    between atoms: _626  and  _629
REMARK  259  A    between atoms: _629  and  _630
REMARK  260  A    between atoms: _630  and  _631
REMARK  261  A    between atoms: _631  and  _632
REMARK  262  A    between atoms: _632  and  _633
REMARK  263  A    between atoms: _637  and  _639
REMARK  264  A    between atoms: _639  and  _640
REMARK  265  A    between atoms: _639  and  _642
REMARK  266  A    between atoms: _642  and  _643
REMARK  267  A    between atoms: _646  and  _648
REMARK  268  A    between atoms: _648  and  _649
REMARK  269  A    between atoms: _648  and  _651
REMARK  270  A    between atoms: _651  and  _652
REMARK  271  A    between atoms: _655  and  _657
REMARK  272  A    between atoms: _657  and  _658
REMARK  273  A    between atoms: _657  and  _660
REMARK  274  A    between atoms: _663  and  _665
REMARK  275  A    between atoms: _665  and  _666
REMARK  276  A    between atoms: _665  and  _668
REMARK  277  A    between atoms: _668  and  _669
REMARK                            x       y       z     vdW  Elec       q    Type
REMARK                         _______ _______ _______ _____ _____    ______ ____
ROOT
ATOM      1  O   HOH     1      16.241  13.271  34.278  0.00  0.00    +0.000 OA
ENDROOT
TORSDOF 0
REMARK  Name = ../refined-set-2016/1s19/1s19_pocket.pdb
REMARK  277 active torsions:
REMARK  status: ('A' for Active; 'I' for Inactive)
REMARK    1  A    between atoms: _1  and  _3
REMARK    2  A    between atoms: _3  and  _4
REMARK    3  A    between atoms: _3  and  _6
REMARK    4  A    between atoms: _6  and  _7
REMARK    5  A    between atoms: _10  and  _12
REMARK    6  A    between atoms: _12  and  _13
REMARK    7  A    between atoms: _12  and  _15
REMARK    8  A    between atoms: _15  and  _16
REMARK    9  A    between atoms: _21  and  _22
REMARK   10  A    between atoms: _24  and  _26
REMARK   11  A    between atoms: _26  and  _27
REMARK   12  A    between atoms: _26  and  _29
REMARK   13  A    between atoms: _29  and  _30
REMARK   14  A    between atoms: _33  and  _35
REMARK   15  A    between atoms: _35  and  _36
REMARK   16  A    between atoms: _35  and  _38
REMARK   17  A    between atoms: _38  and  _39
REMARK   18  A    between atoms: _44  and  _45
REMARK   19  A    between atoms: _47  and  _49
REMARK   20  A    between atoms: _49  and  _50
REMARK   21  A    between atoms: _49  and  _52
REMARK   22  A    between atoms: _52  and  _53
REMARK   23  A    between atoms: _59  and  _61
REMARK   24  A    between atoms: _61  and  _62
REMARK   25  A    between atoms: _61  and  _64
REMARK   26  A    between atoms: _64  and  _65
REMARK   27  A    between atoms: _71  and  _73
REMARK   28  A    between atoms: _73  and  _74
REMARK   29  A    between atoms: _73  and  _76
REMARK   30  A    between atoms: _76  and  _77
REMARK   31  A    between atoms: _77  and  _78
REMARK   32  A    between atoms: _78  and  _79
REMARK   33  A    between atoms: _88  and  _90
REMARK   34  A    between atoms: _90  and  _91
REMARK   35  A    between atoms: _90  and  _93
REMARK   36  A    between atoms: _93  and  _94
REMARK   37  A    between atoms: _94  and  _95
REMARK   38  A    between atoms: _97  and  _99
REMARK   39  A    between atoms: _99  and  _100
REMARK   40  A    between atoms: _99  and  _102
REMARK   41  A    between atoms: _102  and  _103
REMARK   42  A    between atoms: _107  and  _108
REMARK   43  A    between atoms: _113  and  _115
REMARK   44  A    between atoms: _115  and  _116
REMARK   45  A    between atoms: _115  and  _118
REMARK   46  A    between atoms: _118  and  _119
REMARK   47  A    between atoms: _124  and  _126
REMARK   48  A    between atoms: _126  and  _127
REMARK   49  A    between atoms: _126  and  _129
REMARK   50  A    between atoms: _129  and  _130
REMARK   51  A    between atoms: _133  and  _135
REMARK   52  A    between atoms: _135  and  _136
REMARK   53  A    between atoms: _139  and  _141
REMARK   54  A    between atoms: _141  and  _142
REMARK   55  A    between atoms: _141  and  _144
REMARK   56  A    between atoms: _144  and  _145
REMARK   57  A    between atoms: _148  and  _150
REMARK   58  A    between atoms: _150  and  _151
REMARK   59  A    between atoms: _150  and  _153
REMARK   60  A    between atoms: _153  and  _154
REMARK   61  A    between atoms: _157  and  _159
REMARK   62  A    between atoms: _159  and  _160
REMARK   63  A    between atoms: _159  and  _162
REMARK   64  A    between atoms: _165  and  _167
REMARK   65  A    between atoms: _167  and  _168
REMARK   66  A    between atoms: _167  and  _170
REMARK   67  A    between atoms: _170  and  _171
REMARK   68  A    between atoms: _173  and  _175
REMARK   69  A    between atoms: _175  and  _176
REMARK   70  A    between atoms: _175  and  _178
REMARK   71  A    between atoms: _178  and  _179
REMARK   72  A    between atoms: _184  and  _185
REMARK   73  A    between atoms: _187  and  _189
REMARK   74  A    between atoms: _189  and  _190
REMARK   75  A    between atoms: _189  and  _192
REMARK   76  A    between atoms: _192  and  _193
REMARK   77  A    between atoms: _195  and  _197
REMARK   78  A    between atoms: _197  and  _198
REMARK   79  A    between atoms: _197  and  _200
REMARK   80  A    between atoms: _200  and  _201
REMARK   81  A    between atoms: _204  and  _206
REMARK   82  A    between atoms: _206  and  _207
REMARK   83  A    between atoms: _206  and  _209
REMARK   84  A    between atoms: _209  and  _210
REMARK   85  A    between atoms: _210  and  _211
REMARK   86  A    between atoms: _211  and  _212
REMARK   87  A    between atoms: _212  and  _213
REMARK   88  A    between atoms: _217  and  _219
REMARK   89  A    between atoms: _219  and  _220
REMARK   90  A    between atoms: _219  and  _222
REMARK   91  A    between atoms: _225  and  _227
REMARK   92  A    between atoms: _227  and  _228
REMARK   93  A    between atoms: _231  and  _233
REMARK   94  A    between atoms: _233  and  _234
REMARK   95  A    between atoms: _233  and  _236
REMARK   96  A    between atoms: _236  and  _237
REMARK   97  A    between atoms: _240  and  _242
REMARK   98  A    between atoms: _242  and  _243
REMARK   99  A    between atoms: _242  and  _245
REMARK  100  A    between atoms: _245  and  _246
REMARK  101  A    between atoms: _246  and  _247
REMARK  102  A    between atoms: _250  and  _252
REMARK  103  A    between atoms: _252  and  _253
REMARK  104  A    between atoms: _252  and  _255
REMARK  105  A    between atoms: _258  and  _260
REMARK  106  A    between atoms: _260  and  _261
REMARK  107  A    between atoms: _260  and  _263
REMARK  108  A    between atoms: _263  and  _264
REMARK  109  A    between atoms: _267  and  _269
REMARK  110  A    between atoms: _269  and  _270
REMARK  111  A    between atoms: _269  and  _272
REMARK  112  A    between atoms: _272  and  _273
REMARK  113  A    between atoms: _273  and  _274
REMARK  114  A    between atoms: _276  and  _278
REMARK  115  A    between atoms: _278  and  _279
REMARK  116  A    between atoms: _278  and  _281
REMARK  117  A    between atoms: _281  and  _282
REMARK  118  A    between atoms: _285  and  _287
REMARK  119  A    between atoms: _287  and  _288
REMARK  120  A    between atoms: _287  and  _290
REMARK  121  A    between atoms: _290  and  _291
REMARK  122  A    between atoms: _291  and  _292
REMARK  123  A    between atoms: _292  and  _293
REMARK  124  A    between atoms: _302  and  _304
REMARK  125  A    between atoms: _304  and  _305
REMARK  126  A    between atoms: _304  and  _307
REMARK  127  A    between atoms: _307  and  _308
REMARK  128  A    between atoms: _310  and  _312
REMARK  129  A    between atoms: _312  and  _313
REMARK  130  A    between atoms: _312  and  _315
REMARK  131  A    between atoms: _315  and  _316
REMARK  132  A    between atoms: _321  and  _323
REMARK  133  A    between atoms: _323  and  _324
REMARK  134  A    between atoms: _323  and  _326
REMARK  135  A    between atoms: _326  and  _327
REMARK  136  A    between atoms: _327  and  _328
REMARK  137  A    between atoms: _331  and  _333
REMARK  138  A    between atoms: _333  and  _334
REMARK  139  A    between atoms: _333  and  _336
REMARK  140  A    between atoms: _336  and  _337
REMARK  141  A    between atoms: _339  and  _341
REMARK  142  A    between atoms: _341  and  _342
REMARK  143  A    between atoms: _341  and  _344
REMARK  144  A    between atoms: _344  and  _345
REMARK  145  A    between atoms: _351  and  _353
REMARK  146  A    between atoms: _353  and  _354
REMARK  147  A    between atoms: _353  and  _356
REMARK  148  A    between atoms: _356  and  _357
REMARK  149  A    between atoms: _359  and  _361
REMARK  150  A    between atoms: _361  and  _362
REMARK  151  A    between atoms: _361  and  _364
REMARK  152  A    between atoms: _364  and  _365
REMARK  153  A    between atoms: _375  and  _377
REMARK  154  A    between atoms: _377  and  _378
REMARK  155  A    between atoms: _377  and  _380
REMARK  156  A    between atoms: _380  and  _381
REMARK  157  A    between atoms: _384  and  _386
REMARK  158  A    between atoms: _386  and  _387
REMARK  159  A    between atoms: _386  and  _389
REMARK  160  A    between atoms: _391  and  _393
REMARK  161  A    between atoms: _393  and  _394
REMARK  162  A    between atoms: _393  and  _396
REMARK  163  A    between atoms: _396  and  _397
REMARK  164  A    between atoms: _402  and  _403
REMARK  165  A    between atoms: _405  and  _407
REMARK  166  A    between atoms: _407  and  _408
REMARK  167  A    between atoms: _407  and  _410
REMARK  168  A    between atoms: _410  and  _411
REMARK  169  A    between atoms: _411  and  _412
REMARK  170  A    between atoms: _412  and  _413
REMARK  171  A    between atoms: _413  and  _414
REMARK  172  A    between atoms: _418  and  _420
REMARK  173  A    between atoms: _420  and  _421
REMARK  174  A    between atoms: _420  and  _423
REMARK  175  A    between atoms: _423  and  _424
REMARK  176  A    between atoms: _429  and  _430
REMARK  177  A    between atoms: _432  and  _434
REMARK  178  A    between atoms: _434  and  _435
REMARK  179  A    between atoms: _434  and  _437
REMARK  180  A    between atoms: _437  and  _438
REMARK  181  A    between atoms: _438  and  _439
REMARK  182  A    between atoms: _439  and  _440
REMARK  183  A    between atoms: _449  and  _451
REMARK  184  A    between atoms: _451  and  _452
REMARK  185  A    between atoms: _451  and  _454
REMARK  186  A    between atoms: _457  and  _459
REMARK  187  A    between atoms: _459  and  _460
REMARK  188  A    between atoms: _459  and  _462
REMARK  189  A    between atoms: _462  and  _463
REMARK  190  A    between atoms: _466  and  _468
REMARK  191  A    between atoms: _468  and  _469
REMARK  192  A    between atoms: _468  and  _471
REMARK  193  A    between atoms: _474  and  _476
REMARK  194  A    between atoms: _476  and  _477
REMARK  195  A    between atoms: _476  and  _479
REMARK  196  A    between atoms: _479  and  _480
REMARK  197  A    between atoms: _483  and  _485
REMARK  198  A    between atoms: _485  and  _486
REMARK  199  A    between atoms: _489  and  _491
REMARK  200  A    between atoms: _491  and  _492
REMARK  201  A    between atoms: _494  and  _496
REMARK  202  A    between atoms: _496  and  _497
REMARK  203  A    between atoms: _496  and  _499
REMARK  204  A    between atoms: _499  and  _500
REMARK  205  A    between atoms: _505  and  _507
REMARK  206  A    between atoms: _507  and  _508
REMARK  207  A    between atoms: _507  and  _510
REMARK  208  A    between atoms: _510  and  _511
REMARK  209  A    between atoms: _513  and  _515
REMARK  210  A    between atoms: _515  and  _516
REMARK  211  A    between atoms: _515  and  _518
REMARK  212  A    between atoms: _518  and  _519
REMARK  213  A    between atoms: _522  and  _524
REMARK  214  A    between atoms: _524  and  _525
REMARK  215  A    between atoms: _524  and  _527
REMARK  216  A    between atoms: _527  and  _528
REMARK  217  A    between atoms: _531  and  _533
REMARK  218  A    between atoms: _533  and  _534
REMARK  219  A    between atoms: _533  and  _536
REMARK  220  A    between atoms: _536  and  _537
REMARK  221  A    between atoms: _540  and  _542
REMARK  222  A    between atoms: _542  and  _543
REMARK  223  A    between atoms: _542  and  _545
REMARK  224  A    between atoms: _545  and  _546
REMARK  225  A    between atoms: _549  and  _551
REMARK  226  A    between atoms: _551  and  _552
REMARK  227  A    between atoms: _551  and  _554
REMARK  228  A    between atoms: _554  and  _555
REMARK  229  A    between atoms: _555  and  _556
REMARK  230  A    between atoms: _561  and  _563
REMARK  231  A    between atoms: _563  and  _564
REMARK  232  A    between atoms: _563  and  _566
REMARK  233  A    between atoms: _566  and  _567
REMARK  234  A    between atoms: _570  and  _572
REMARK  235  A    between atoms: _572  and  _573
REMARK  236  A    between atoms: _572  and  _575
REMARK  237  A    between atoms: _575  and  _576
REMARK  238  A    between atoms: _581  and  _583
REMARK  239  A    between atoms: _583  and  _584
REMARK  240  A    between atoms: _583  and  _586
REMARK  241  A    between atoms: _586  and  _587
REMARK  242  A    between atoms: _589  and  _591
REMARK  243  A    between atoms: _591  and  _592
REMARK  244  A    between atoms: _591  and  _594
REMARK  245  A    between atoms: _594  and  _595
REMARK  246  A    between atoms: _595  and  _596
REMARK  247  A    between atoms: _601  and  _603
REMARK  248  A    between atoms: _603  and  _604
REMARK  249  A    between atoms: _603  and  _606
REMARK  250  A    between atoms: _606  and  _607
REMARK  251  A    between atoms: _612  and  _613
REMARK  252  A    between atoms: _615  and  _617
REMARK  253  A    between atoms: _617  and  _618
REMARK  254  A    between atoms: _617  and  _620
REMARK  255  A    between atoms: _620  and  _621
REMARK  256  A    between atoms: _624  and  _626
REMARK  257  A    between atoms: _626  and  _627
REMARK  258  A    between atoms: _626  and  _629
REMARK  259  A    between atoms: _629  and  _630
REMARK  260  A    between atoms: _630  and  _631
REMARK  261  A    between atoms: _631  and  _632
REMARK  262  A    between atoms: _632  and  _633
REMARK  263  A    between atoms: _637  and  _639
REMARK  264  A    between atoms: _639  and  _640
REMARK  265  A    between atoms: _639  and  _642
REMARK  266  A    between atoms: _642  and  _643
REMARK  267  A    between atoms: _646  and  _648
REMARK  268  A    between atoms: _648  and  _649
REMARK  269  A    between atoms: _648  and  _651
REMARK  270  A    between atoms: _651  and  _652
REMARK  271  A    between atoms: _655  and  _657
REMARK  272  A    between atoms: _657  and  _658
REMARK  273  A    between atoms: _657  and  _660
REMARK  274  A    between atoms: _663  and  _665
REMARK  275  A    between atoms: _665  and  _666
REMARK  276  A    between atoms: _665  and  _668
REMARK  277  A    between atoms: _668  and  _669
REMARK                            x       y       z     vdW  Elec       q    Type
REMARK                         _______ _______ _______ _____ _____    ______ ____
ROOT
ATOM      1  O   HOH     1       4.312  27.646  42.261  0.00  0.00    +0.000 OA
ENDROOT
TORSDOF 0
REMARK  Name = ../refined-set-2016/1s19/1s19_pocket.pdb
REMARK  277 active torsions:
REMARK  status: ('A' for Active; 'I' for Inactive)
REMARK    1  A    between atoms: _1  and  _3
REMARK    2  A    between atoms: _3  and  _4
REMARK    3  A    between atoms: _3  and  _6
REMARK    4  A    between atoms: _6  and  _7
REMARK    5  A    between atoms: _10  and  _12
REMARK    6  A    between atoms: _12  and  _13
REMARK    7  A    between atoms: _12  and  _15
REMARK    8  A    between atoms: _15  and  _16
REMARK    9  A    between atoms: _21  and  _22
REMARK   10  A    between atoms: _24  and  _26
REMARK   11  A    between atoms: _26  and  _27
REMARK   12  A    between atoms: _26  and  _29
REMARK   13  A    between atoms: _29  and  _30
REMARK   14  A    between atoms: _33  and  _35
REMARK   15  A    between atoms: _35  and  _36
REMARK   16  A    between atoms: _35  and  _38
REMARK   17  A    between atoms: _38  and  _39
REMARK   18  A    between atoms: _44  and  _45
REMARK   19  A    between atoms: _47  and  _49
REMARK   20  A    between atoms: _49  and  _50
REMARK   21  A    between atoms: _49  and  _52
REMARK   22  A    between atoms: _52  and  _53
REMARK   23  A    between atoms: _59  and  _61
REMARK   24  A    between atoms: _61  and  _62
REMARK   25  A    between atoms: _61  and  _64
REMARK   26  A    between atoms: _64  and  _65
REMARK   27  A    between atoms: _71  and  _73
REMARK   28  A    between atoms: _73  and  _74
REMARK   29  A    between atoms: _73  and  _76
REMARK   30  A    between atoms: _76  and  _77
REMARK   31  A    between atoms: _77  and  _78
REMARK   32  A    between atoms: _78  and  _79
REMARK   33  A    between atoms: _88  and  _90
REMARK   34  A    between atoms: _90  and  _91
REMARK   35  A    between atoms: _90  and  _93
REMARK   36  A    between atoms: _93  and  _94
REMARK   37  A    between atoms: _94  and  _95
REMARK   38  A    between atoms: _97  and  _99
REMARK   39  A    between atoms: _99  and  _100
REMARK   40  A    between atoms: _99  and  _102
REMARK   41  A    between atoms: _102  and  _103
REMARK   42  A    between atoms: _107  and  _108
REMARK   43  A    between atoms: _113  and  _115
REMARK   44  A    between atoms: _115  and  _116
REMARK   45  A    between atoms: _115  and  _118
REMARK   46  A    between atoms: _118  and  _119
REMARK   47  A    between atoms: _124  and  _126
REMARK   48  A    between atoms: _126  and  _127
REMARK   49  A    between atoms: _126  and  _129
REMARK   50  A    between atoms: _129  and  _130
REMARK   51  A    between atoms: _133  and  _135
REMARK   52  A    between atoms: _135  and  _136
REMARK   53  A    between atoms: _139  and  _141
REMARK   54  A    between atoms: _141  and  _142
REMARK   55  A    between atoms: _141  and  _144
REMARK   56  A    between atoms: _144  and  _145
REMARK   57  A    between atoms: _148  and  _150
REMARK   58  A    between atoms: _150  and  _151
REMARK   59  A    between atoms: _150  and  _153
REMARK   60  A    between atoms: _153  and  _154
REMARK   61  A    between atoms: _157  and  _159
REMARK   62  A    between atoms: _159  and  _160
REMARK   63  A    between atoms: _159  and  _162
REMARK   64  A    between atoms: _165  and  _167
REMARK   65  A    between atoms: _167  and  _168
REMARK   66  A    between atoms: _167  and  _170
REMARK   67  A    between atoms: _170  and  _171
REMARK   68  A    between atoms: _173  and  _175
REMARK   69  A    between atoms: _175  and  _176
REMARK   70  A    between atoms: _175  and  _178
REMARK   71  A    between atoms: _178  and  _179
REMARK   72  A    between atoms: _184  and  _185
REMARK   73  A    between atoms: _187  and  _189
REMARK   74  A    between atoms: _189  and  _190
REMARK   75  A    between atoms: _189  and  _192
REMARK   76  A    between atoms: _192  and  _193
REMARK   77  A    between atoms: _195  and  _197
REMARK   78  A    between atoms: _197  and  _198
REMARK   79  A    between atoms: _197  and  _200
REMARK   80  A    between atoms: _200  and  _201
REMARK   81  A    between atoms: _204  and  _206
REMARK   82  A    between atoms: _206  and  _207
REMARK   83  A    between atoms: _206  and  _209
REMARK   84  A    between atoms: _209  and  _210
REMARK   85  A    between atoms: _210  and  _211
REMARK   86  A    between atoms: _211  and  _212
REMARK   87  A    between atoms: _212  and  _213
REMARK   88  A    between atoms: _217  and  _219
REMARK   89  A    between atoms: _219  and  _220
REMARK   90  A    between atoms: _219  and  _222
REMARK   91  A    between atoms: _225  and  _227
REMARK   92  A    between atoms: _227  and  _228
REMARK   93  A    between atoms: _231  and  _233
REMARK   94  A    between atoms: _233  and  _234
REMARK   95  A    between atoms: _233  and  _236
REMARK   96  A    between atoms: _236  and  _237
REMARK   97  A    between atoms: _240  and  _242
REMARK   98  A    between atoms: _242  and  _243
REMARK   99  A    between atoms: _242  and  _245
REMARK  100  A    between atoms: _245  and  _246
REMARK  101  A    between atoms: _246  and  _247
REMARK  102  A    between atoms: _250  and  _252
REMARK  103  A    between atoms: _252  and  _253
REMARK  104  A    between atoms: _252  and  _255
REMARK  105  A    between atoms: _258  and  _260
REMARK  106  A    between atoms: _260  and  _261
REMARK  107  A    between atoms: _260  and  _263
REMARK  108  A    between atoms: _263  and  _264
REMARK  109  A    between atoms: _267  and  _269
REMARK  110  A    between atoms: _269  and  _270
REMARK  111  A    between atoms: _269  and  _272
REMARK  112  A    between atoms: _272  and  _273
REMARK  113  A    between atoms: _273  and  _274
REMARK  114  A    between atoms: _276  and  _278
REMARK  115  A    between atoms: _278  and  _279
REMARK  116  A    between atoms: _278  and  _281
REMARK  117  A    between atoms: _281  and  _282
REMARK  118  A    between atoms: _285  and  _287
REMARK  119  A    between atoms: _287  and  _288
REMARK  120  A    between atoms: _287  and  _290
REMARK  121  A    between atoms: _290  and  _291
REMARK  122  A    between atoms: _291  and  _292
REMARK  123  A    between atoms: _292  and  _293
REMARK  124  A    between atoms: _302  and  _304
REMARK  125  A    between atoms: _304  and  _305
REMARK  126  A    between atoms: _304  and  _307
REMARK  127  A    between atoms: _307  and  _308
REMARK  128  A    between atoms: _310  and  _312
REMARK  129  A    between atoms: _312  and  _313
REMARK  130  A    between atoms: _312  and  _315
REMARK  131  A    between atoms: _315  and  _316
REMARK  132  A    between atoms: _321  and  _323
REMARK  133  A    between atoms: _323  and  _324
REMARK  134  A    between atoms: _323  and  _326
REMARK  135  A    between atoms: _326  and  _327
REMARK  136  A    between atoms: _327  and  _328
REMARK  137  A    between atoms: _331  and  _333
REMARK  138  A    between atoms: _333  and  _334
REMARK  139  A    between atoms: _333  and  _336
REMARK  140  A    between atoms: _336  and  _337
REMARK  141  A    between atoms: _339  and  _341
REMARK  142  A    between atoms: _341  and  _342
REMARK  143  A    between atoms: _341  and  _344
REMARK  144  A    between atoms: _344  and  _345
REMARK  145  A    between atoms: _351  and  _353
REMARK  146  A    between atoms: _353  and  _354
REMARK  147  A    between atoms: _353  and  _356
REMARK  148  A    between atoms: _356  and  _357
REMARK  149  A    between atoms: _359  and  _361
REMARK  150  A    between atoms: _361  and  _362
REMARK  151  A    between atoms: _361  and  _364
REMARK  152  A    between atoms: _364  and  _365
REMARK  153  A    between atoms: _375  and  _377
REMARK  154  A    between atoms: _377  and  _378
REMARK  155  A    between atoms: _377  and  _380
REMARK  156  A    between atoms: _380  and  _381
REMARK  157  A    between atoms: _384  and  _386
REMARK  158  A    between atoms: _386  and  _387
REMARK  159  A    between atoms: _386  and  _389
REMARK  160  A    between atoms: _391  and  _393
REMARK  161  A    between atoms: _393  and  _394
REMARK  162  A    between atoms: _393  and  _396
REMARK  163  A    between atoms: _396  and  _397
REMARK  164  A    between atoms: _402  and  _403
REMARK  165  A    between atoms: _405  and  _407
REMARK  166  A    between atoms: _407  and  _408
REMARK  167  A    between atoms: _407  and  _410
REMARK  168  A    between atoms: _410  and  _411
REMARK  169  A    between atoms: _411  and  _412
REMARK  170  A    between atoms: _412  and  _413
REMARK  171  A    between atoms: _413  and  _414
REMARK  172  A    between atoms: _418  and  _420
REMARK  173  A    between atoms: _420  and  _421
REMARK  174  A    between atoms: _420  and  _423
REMARK  175  A    between atoms: _423  and  _424
REMARK  176  A    between atoms: _429  and  _430
REMARK  177  A    between atoms: _432  and  _434
REMARK  178  A    between atoms: _434  and  _435
REMARK  179  A    between atoms: _434  and  _437
REMARK  180  A    between atoms: _437  and  _438
REMARK  181  A    between atoms: _438  and  _439
REMARK  182  A    between atoms: _439  and  _440
REMARK  183  A    between atoms: _449  and  _451
REMARK  184  A    between atoms: _451  and  _452
REMARK  185  A    between atoms: _451  and  _454
REMARK  186  A    between atoms: _457  and  _459
REMARK  187  A    between atoms: _459  and  _460
REMARK  188  A    between atoms: _459  and  _462
REMARK  189  A    between atoms: _462  and  _463
REMARK  190  A    between atoms: _466  and  _468
REMARK  191  A    between atoms: _468  and  _469
REMARK  192  A    between atoms: _468  and  _471
REMARK  193  A    between atoms: _474  and  _476
REMARK  194  A    between atoms: _476  and  _477
REMARK  195  A    between atoms: _476  and  _479
REMARK  196  A    between atoms: _479  and  _480
REMARK  197  A    between atoms: _483  and  _485
REMARK  198  A    between atoms: _485  and  _486
REMARK  199  A    between atoms: _489  and  _491
REMARK  200  A    between atoms: _491  and  _492
REMARK  201  A    between atoms: _494  and  _496
REMARK  202  A    between atoms: _496  and  _497
REMARK  203  A    between atoms: _496  and  _499
REMARK  204  A    between atoms: _499  and  _500
REMARK  205  A    between atoms: _505  and  _507
REMARK  206  A    between atoms: _507  and  _508
REMARK  207  A    between atoms: _507  and  _510
REMARK  208  A    between atoms: _510  and  _511
REMARK  209  A    between atoms: _513  and  _515
REMARK  210  A    between atoms: _515  and  _516
REMARK  211  A    between atoms: _515  and  _518
REMARK  212  A    between atoms: _518  and  _519
REMARK  213  A    between atoms: _522  and  _524
REMARK  214  A    between atoms: _524  and  _525
REMARK  215  A    between atoms: _524  and  _527
REMARK  216  A    between atoms: _527  and  _528
REMARK  217  A    between atoms: _531  and  _533
REMARK  218  A    between atoms: _533  and  _534
REMARK  219  A    between atoms: _533  and  _536
REMARK  220  A    between atoms: _536  and  _537
REMARK  221  A    between atoms: _540  and  _542
REMARK  222  A    between atoms: _542  and  _543
REMARK  223  A    between atoms: _542  and  _545
REMARK  224  A    between atoms: _545  and  _546
REMARK  225  A    between atoms: _549  and  _551
REMARK  226  A    between atoms: _551  and  _552
REMARK  227  A    between atoms: _551  and  _554
REMARK  228  A    between atoms: _554  and  _555
REMARK  229  A    between atoms: _555  and  _556
REMARK  230  A    between atoms: _561  and  _563
REMARK  231  A    between atoms: _563  and  _564
REMARK  232  A    between atoms: _563  and  _566
REMARK  233  A    between atoms: _566  and  _567
REMARK  234  A    between atoms: _570  and  _572
REMARK  235  A    between atoms: _572  and  _573
REMARK  236  A    between atoms: _572  and  _575
REMARK  237  A    between atoms: _575  and  _576
REMARK  238  A    between atoms: _581  and  _583
REMARK  239  A    between atoms: _583  and  _584
REMARK  240  A    between atoms: _583  and  _586
REMARK  241  A    between atoms: _586  and  _587
REMARK  242  A    between atoms: _589  and  _591
REMARK  243  A    between atoms: _591  and  _592
REMARK  244  A    between atoms: _591  and  _594
REMARK  245  A    between atoms: _594  and  _595
REMARK  246  A    between atoms: _595  and  _596
REMARK  247  A    between atoms: _601  and  _603
REMARK  248  A    between atoms: _603  and  _604
REMARK  249  A    between atoms: _603  and  _606
REMARK  250  A    between atoms: _606  and  _607
REMARK  251  A    between atoms: _612  and  _613
REMARK  252  A    between atoms: _615  and  _617
REMARK  253  A    between atoms: _617  and  _618
REMARK  254  A    between atoms: _617  and  _620
REMARK  255  A    between atoms: _620  and  _621
REMARK  256  A    between atoms: _624  and  _626
REMARK  257  A    between atoms: _626  and  _627
REMARK  258  A    between atoms: _626  and  _629
REMARK  259  A    between atoms: _629  and  _630
REMARK  260  A    between atoms: _630  and  _631
REMARK  261  A    between atoms: _631  and  _632
REMARK  262  A    between atoms: _632  and  _633
REMARK  263  A    between atoms: _637  and  _639
REMARK  264  A    between atoms: _639  and  _640
REMARK  265  A    between atoms: _639  and  _642
REMARK  266  A    between atoms: _642  and  _643
REMARK  267  A    between atoms: _646  and  _648
REMARK  268  A    between atoms: _648  and  _649
REMARK  269  A    between atoms: _648  and  _651
REMARK  270  A    between atoms: _651  and  _652
REMARK  271  A    between atoms: _655  and  _657
REMARK  272  A    between atoms: _657  and  _658
REMARK  273  A    between atoms: _657  and  _660
REMARK  274  A    between atoms: _663  and  _665
REMARK  275  A    between atoms: _665  and  _666
REMARK  276  A    between atoms: _665  and  _668
REMARK  277  A    between atoms: _668  and  _669
REMARK                            x       y       z     vdW  Elec       q    Type
REMARK                         _______ _______ _______ _____ _____    ______ ____
ROOT
ATOM      1  O   HOH     1      22.713  15.374  34.329  0.00  0.00    +0.000 OA
ENDROOT
TORSDOF 0
