REMARK  Name = ../refined-set-2016/3hkw/3hkw_pocket.pdb
REMARK  252 active torsions:
REMARK  status: ('A' for Active; 'I' for Inactive)
REMARK    1  A    between atoms: _1  and  _3
REMARK    2  A    between atoms: _3  and  _4
REMARK    3  A    between atoms: _3  and  _6
REMARK    4  A    between atoms: _6  and  _7
REMARK    5  A    between atoms: _7  and  _8
REMARK    6  A    between atoms: _8  and  _9
REMARK    7  A    between atoms: _9  and  _10
REMARK    8  A    between atoms: _14  and  _16
REMARK    9  A    between atoms: _16  and  _17
REMARK   10  A    between atoms: _16  and  _19
REMARK   11  A    between atoms: _19  and  _20
REMARK   12  A    between atoms: _20  and  _21
REMARK   13  A    between atoms: _24  and  _26
REMARK   14  A    between atoms: _26  and  _27
REMARK   15  A    between atoms: _26  and  _29
REMARK   16  A    between atoms: _29  and  _30
REMARK   17  A    between atoms: _30  and  _31
REMARK   18  A    between atoms: _31  and  _32
REMARK   19  A    between atoms: _41  and  _43
REMARK   20  A    between atoms: _43  and  _44
REMARK   21  A    between atoms: _46  and  _48
REMARK   22  A    between atoms: _48  and  _49
REMARK   23  A    between atoms: _48  and  _51
REMARK   24  A    between atoms: _51  and  _52
REMARK   25  A    between atoms: _58  and  _60
REMARK   26  A    between atoms: _60  and  _61
REMARK   27  A    between atoms: _60  and  _63
REMARK   28  A    between atoms: _63  and  _64
REMARK   29  A    between atoms: _69  and  _70
REMARK   30  A    between atoms: _72  and  _74
REMARK   31  A    between atoms: _74  and  _75
REMARK   32  A    between atoms: _74  and  _77
REMARK   33  A    between atoms: _77  and  _78
REMARK   34  A    between atoms: _81  and  _82
REMARK   35  A    between atoms: _87  and  _89
REMARK   36  A    between atoms: _89  and  _90
REMARK   37  A    between atoms: _92  and  _94
REMARK   38  A    between atoms: _94  and  _95
REMARK   39  A    between atoms: _94  and  _97
REMARK   40  A    between atoms: _97  and  _98
REMARK   41  A    between atoms: _98  and  _99
REMARK   42  A    between atoms: _104  and  _106
REMARK   43  A    between atoms: _106  and  _107
REMARK   44  A    between atoms: _106  and  _109
REMARK   45  A    between atoms: _109  and  _110
REMARK   46  A    between atoms: _110  and  _111
REMARK   47  A    between atoms: _111  and  _112
REMARK   48  A    between atoms: _121  and  _123
REMARK   49  A    between atoms: _123  and  _124
REMARK   50  A    between atoms: _123  and  _126
REMARK   51  A    between atoms: _129  and  _131
REMARK   52  A    between atoms: _131  and  _132
REMARK   53  A    between atoms: _131  and  _134
REMARK   54  A    between atoms: _134  and  _135
REMARK   55  A    between atoms: _138  and  _140
REMARK   56  A    between atoms: _140  and  _141
REMARK   57  A    between atoms: _140  and  _143
REMARK   58  A    between atoms: _143  and  _144
REMARK   59  A    between atoms: _147  and  _149
REMARK   60  A    between atoms: _149  and  _150
REMARK   61  A    between atoms: _149  and  _152
REMARK   62  A    between atoms: _152  and  _153
REMARK   63  A    between atoms: _155  and  _157
REMARK   64  A    between atoms: _157  and  _158
REMARK   65  A    between atoms: _157  and  _160
REMARK   66  A    between atoms: _160  and  _161
REMARK   67  A    between atoms: _164  and  _166
REMARK   68  A    between atoms: _166  and  _167
REMARK   69  A    between atoms: _166  and  _169
REMARK   70  A    between atoms: _169  and  _170
REMARK   71  A    between atoms: _172  and  _174
REMARK   72  A    between atoms: _174  and  _175
REMARK   73  A    between atoms: _174  and  _177
REMARK   74  A    between atoms: _177  and  _178
REMARK   75  A    between atoms: _183  and  _185
REMARK   76  A    between atoms: _185  and  _186
REMARK   77  A    between atoms: _185  and  _188
REMARK   78  A    between atoms: _188  and  _189
REMARK   79  A    between atoms: _192  and  _194
REMARK   80  A    between atoms: _194  and  _195
REMARK   81  A    between atoms: _194  and  _197
REMARK   82  A    between atoms: _199  and  _201
REMARK   83  A    between atoms: _201  and  _202
REMARK   84  A    between atoms: _204  and  _206
REMARK   85  A    between atoms: _206  and  _207
REMARK   86  A    between atoms: _206  and  _209
REMARK   87  A    between atoms: _209  and  _210
REMARK   88  A    between atoms: _213  and  _215
REMARK   89  A    between atoms: _215  and  _216
REMARK   90  A    between atoms: _215  and  _218
REMARK   91  A    between atoms: _218  and  _219
REMARK   92  A    between atoms: _222  and  _224
REMARK   93  A    between atoms: _224  and  _225
REMARK   94  A    between atoms: _224  and  _227
REMARK   95  A    between atoms: _227  and  _228
REMARK   96  A    between atoms: _230  and  _232
REMARK   97  A    between atoms: _232  and  _233
REMARK   98  A    between atoms: _232  and  _235
REMARK   99  A    between atoms: _237  and  _239
REMARK  100  A    between atoms: _239  and  _240
REMARK  101  A    between atoms: _239  and  _242
REMARK  102  A    between atoms: _242  and  _243
REMARK  103  A    between atoms: _245  and  _247
REMARK  104  A    between atoms: _247  and  _248
REMARK  105  A    between atoms: _247  and  _250
REMARK  106  A    between atoms: _250  and  _251
REMARK  107  A    between atoms: _253  and  _255
REMARK  108  A    between atoms: _255  and  _256
REMARK  109  A    between atoms: _255  and  _258
REMARK  110  A    between atoms: _258  and  _259
REMARK  111  A    between atoms: _264  and  _266
REMARK  112  A    between atoms: _266  and  _267
REMARK  113  A    between atoms: _266  and  _269
REMARK  114  A    between atoms: _269  and  _270
REMARK  115  A    between atoms: _275  and  _276
REMARK  116  A    between atoms: _278  and  _280
REMARK  117  A    between atoms: _280  and  _281
REMARK  118  A    between atoms: _280  and  _283
REMARK  119  A    between atoms: _283  and  _284
REMARK  120  A    between atoms: _287  and  _289
REMARK  121  A    between atoms: _289  and  _290
REMARK  122  A    between atoms: _289  and  _292
REMARK  123  A    between atoms: _292  and  _293
REMARK  124  A    between atoms: _296  and  _298
REMARK  125  A    between atoms: _298  and  _299
REMARK  126  A    between atoms: _298  and  _301
REMARK  127  A    between atoms: _301  and  _302
REMARK  128  A    between atoms: _302  and  _303
REMARK  129  A    between atoms: _303  and  _304
REMARK  130  A    between atoms: _313  and  _315
REMARK  131  A    between atoms: _315  and  _316
REMARK  132  A    between atoms: _315  and  _318
REMARK  133  A    between atoms: _318  and  _319
REMARK  134  A    between atoms: _323  and  _324
REMARK  135  A    between atoms: _329  and  _331
REMARK  136  A    between atoms: _331  and  _332
REMARK  137  A    between atoms: _331  and  _334
REMARK  138  A    between atoms: _334  and  _335
REMARK  139  A    between atoms: _335  and  _336
REMARK  140  A    between atoms: _336  and  _337
REMARK  141  A    between atoms: _346  and  _348
REMARK  142  A    between atoms: _348  and  _349
REMARK  143  A    between atoms: _348  and  _351
REMARK  144  A    between atoms: _351  and  _352
REMARK  145  A    between atoms: _352  and  _353
REMARK  146  A    between atoms: _356  and  _358
REMARK  147  A    between atoms: _358  and  _359
REMARK  148  A    between atoms: _358  and  _361
REMARK  149  A    between atoms: _364  and  _366
REMARK  150  A    between atoms: _366  and  _367
REMARK  151  A    between atoms: _366  and  _369
REMARK  152  A    between atoms: _369  and  _370
REMARK  153  A    between atoms: _375  and  _377
REMARK  154  A    between atoms: _377  and  _378
REMARK  155  A    between atoms: _377  and  _380
REMARK  156  A    between atoms: _380  and  _381
REMARK  157  A    between atoms: _383  and  _385
REMARK  158  A    between atoms: _385  and  _386
REMARK  159  A    between atoms: _385  and  _388
REMARK  160  A    between atoms: _388  and  _389
REMARK  161  A    between atoms: _399  and  _401
REMARK  162  A    between atoms: _401  and  _402
REMARK  163  A    between atoms: _401  and  _404
REMARK  164  A    between atoms: _404  and  _405
REMARK  165  A    between atoms: _408  and  _410
REMARK  166  A    between atoms: _410  and  _411
REMARK  167  A    between atoms: _413  and  _415
REMARK  168  A    between atoms: _415  and  _416
REMARK  169  A    between atoms: _415  and  _418
REMARK  170  A    between atoms: _418  and  _419
REMARK  171  A    between atoms: _424  and  _426
REMARK  172  A    between atoms: _426  and  _427
REMARK  173  A    between atoms: _426  and  _429
REMARK  174  A    between atoms: _429  and  _430
REMARK  175  A    between atoms: _433  and  _435
REMARK  176  A    between atoms: _435  and  _436
REMARK  177  A    between atoms: _435  and  _438
REMARK  178  A    between atoms: _438  and  _439
REMARK  179  A    between atoms: _442  and  _444
REMARK  180  A    between atoms: _444  and  _445
REMARK  181  A    between atoms: _444  and  _447
REMARK  182  A    between atoms: _447  and  _448
REMARK  183  A    between atoms: _448  and  _449
REMARK  184  A    between atoms: _451  and  _453
REMARK  185  A    between atoms: _453  and  _454
REMARK  186  A    between atoms: _453  and  _456
REMARK  187  A    between atoms: _456  and  _457
REMARK  188  A    between atoms: _463  and  _465
REMARK  189  A    between atoms: _465  and  _466
REMARK  190  A    between atoms: _470  and  _471
REMARK  191  A    between atoms: _476  and  _478
REMARK  192  A    between atoms: _478  and  _479
REMARK  193  A    between atoms: _478  and  _481
REMARK  194  A    between atoms: _481  and  _482
REMARK  195  A    between atoms: _485  and  _487
REMARK  196  A    between atoms: _487  and  _488
REMARK  197  A    between atoms: _487  and  _490
REMARK  198  A    between atoms: _490  and  _491
REMARK  199  A    between atoms: _501  and  _503
REMARK  200  A    between atoms: _503  and  _504
REMARK  201  A    between atoms: _503  and  _506
REMARK  202  A    between atoms: _508  and  _510
REMARK  203  A    between atoms: _510  and  _511
REMARK  204  A    between atoms: _510  and  _513
REMARK  205  A    between atoms: _513  and  _514
REMARK  206  A    between atoms: _514  and  _515
REMARK  207  A    between atoms: _518  and  _520
REMARK  208  A    between atoms: _520  and  _521
REMARK  209  A    between atoms: _520  and  _523
REMARK  210  A    between atoms: _523  and  _524
REMARK  211  A    between atoms: _527  and  _529
REMARK  212  A    between atoms: _529  and  _530
REMARK  213  A    between atoms: _529  and  _532
REMARK  214  A    between atoms: _532  and  _533
REMARK  215  A    between atoms: _538  and  _539
REMARK  216  A    between atoms: _541  and  _543
REMARK  217  A    between atoms: _543  and  _544
REMARK  218  A    between atoms: _546  and  _548
REMARK  219  A    between atoms: _548  and  _549
REMARK  220  A    between atoms: _552  and  _554
REMARK  221  A    between atoms: _554  and  _555
REMARK  222  A    between atoms: _554  and  _557
REMARK  223  A    between atoms: _559  and  _561
REMARK  224  A    between atoms: _561  and  _562
REMARK  225  A    between atoms: _561  and  _564
REMARK  226  A    between atoms: _564  and  _565
REMARK  227  A    between atoms: _570  and  _571
REMARK  228  A    between atoms: _573  and  _575
REMARK  229  A    between atoms: _575  and  _576
REMARK  230  A    between atoms: _575  and  _578
REMARK  231  A    between atoms: _578  and  _579
REMARK  232  A    between atoms: _584  and  _586
REMARK  233  A    between atoms: _586  and  _587
REMARK  234  A    between atoms: _586  and  _589
REMARK  235  A    between atoms: _589  and  _590
REMARK  236  A    between atoms: _596  and  _598
REMARK  237  A    between atoms: _598  and  _599
REMARK  238  A    between atoms: _602  and  _604
REMARK  239  A    between atoms: _604  and  _605
REMARK  240  A    between atoms: _607  and  _609
REMARK  241  A    between atoms: _609  and  _610
REMARK  242  A    between atoms: _609  and  _612
REMARK  243  A    between atoms: _612  and  _613
REMARK  244  A    between atoms: _618  and  _619
REMARK  245  A    between atoms: _621  and  _623
REMARK  246  A    between atoms: _623  and  _624
REMARK  247  A    between atoms: _623  and  _626
REMARK  248  A    between atoms: _626  and  _627
REMARK  249  A    between atoms: _629  and  _631
REMARK  250  A    between atoms: _631  and  _632
REMARK  251  A    between atoms: _634  and  _636
REMARK  252  A    between atoms: _636  and  _637
REMARK                            x       y       z     vdW  Elec       q    Type
REMARK                         _______ _______ _______ _____ _____    ______ ____
ROOT
ATOM      1  CG  LYS A   1      44.659  -9.147 -17.161  0.00  0.00    -0.000 C 
ENDROOT
BRANCH   1   2
ATOM      2  CB  LYS A   1      45.232  -9.244 -18.553  0.00  0.00    +0.025 C 
BRANCH   2   3
ATOM      3  CA  LYS A   1      45.810 -10.616 -18.893  0.00  0.00    +0.133 C 
BRANCH   3   4
ATOM      4  N   LYS A   1      46.957 -10.908 -18.049  0.00  0.00    -0.239 NA
ATOM      5  H   LYS A   1      47.372 -10.146 -17.476  0.00  0.00    +0.142 HD
ENDBRANCH   3   4
BRANCH   3   6
ATOM      6  C   LYS A   1      46.201 -10.660 -20.371  0.00  0.00    +0.224 C 
ATOM      7  O   LYS A   1      47.310 -10.270 -20.747  0.00  0.00    -0.287 OA
ENDBRANCH   3   6
ENDBRANCH   2   3
ENDBRANCH   1   2
BRANCH   1   8
ATOM      8  CD  LYS A   1      44.123  -7.743 -16.881  0.00  0.00    -0.024 C 
BRANCH   8   9
ATOM      9  CE  LYS A   1      43.219  -7.704 -15.651  0.00  0.00    -0.086 C 
BRANCH   9  10
ATOM     10  NZ  LYS A   1      42.677  -6.342 -15.355  0.00  0.00    +0.380 N 
ATOM     11  HZ1 LYS A   1      42.073  -6.387 -14.510  0.00  0.00    -0.089 HD
ATOM     12  HZ2 LYS A   1      43.466  -5.686 -15.185  0.00  0.00    -0.089 HD
ATOM     13  HZ3 LYS A   1      42.117  -6.009 -16.166  0.00  0.00    -0.089 HD
ENDBRANCH   9  10
ENDBRANCH   8   9
ENDBRANCH   1   8
TORSDOF 7
REMARK  Name = ../refined-set-2016/3hkw/3hkw_pocket.pdb
REMARK  252 active torsions:
REMARK  status: ('A' for Active; 'I' for Inactive)
REMARK    1  A    between atoms: _1  and  _3
REMARK    2  A    between atoms: _3  and  _4
REMARK    3  A    between atoms: _3  and  _6
REMARK    4  A    between atoms: _6  and  _7
REMARK    5  A    between atoms: _7  and  _8
REMARK    6  A    between atoms: _8  and  _9
REMARK    7  A    between atoms: _9  and  _10
REMARK    8  A    between atoms: _14  and  _16
REMARK    9  A    between atoms: _16  and  _17
REMARK   10  A    between atoms: _16  and  _19
REMARK   11  A    between atoms: _19  and  _20
REMARK   12  A    between atoms: _20  and  _21
REMARK   13  A    between atoms: _24  and  _26
REMARK   14  A    between atoms: _26  and  _27
REMARK   15  A    between atoms: _26  and  _29
REMARK   16  A    between atoms: _29  and  _30
REMARK   17  A    between atoms: _30  and  _31
REMARK   18  A    between atoms: _31  and  _32
REMARK   19  A    between atoms: _41  and  _43
REMARK   20  A    between atoms: _43  and  _44
REMARK   21  A    between atoms: _46  and  _48
REMARK   22  A    between atoms: _48  and  _49
REMARK   23  A    between atoms: _48  and  _51
REMARK   24  A    between atoms: _51  and  _52
REMARK   25  A    between atoms: _58  and  _60
REMARK   26  A    between atoms: _60  and  _61
REMARK   27  A    between atoms: _60  and  _63
REMARK   28  A    between atoms: _63  and  _64
REMARK   29  A    between atoms: _69  and  _70
REMARK   30  A    between atoms: _72  and  _74
REMARK   31  A    between atoms: _74  and  _75
REMARK   32  A    between atoms: _74  and  _77
REMARK   33  A    between atoms: _77  and  _78
REMARK   34  A    between atoms: _81  and  _82
REMARK   35  A    between atoms: _87  and  _89
REMARK   36  A    between atoms: _89  and  _90
REMARK   37  A    between atoms: _92  and  _94
REMARK   38  A    between atoms: _94  and  _95
REMARK   39  A    between atoms: _94  and  _97
REMARK   40  A    between atoms: _97  and  _98
REMARK   41  A    between atoms: _98  and  _99
REMARK   42  A    between atoms: _104  and  _106
REMARK   43  A    between atoms: _106  and  _107
REMARK   44  A    between atoms: _106  and  _109
REMARK   45  A    between atoms: _109  and  _110
REMARK   46  A    between atoms: _110  and  _111
REMARK   47  A    between atoms: _111  and  _112
REMARK   48  A    between atoms: _121  and  _123
REMARK   49  A    between atoms: _123  and  _124
REMARK   50  A    between atoms: _123  and  _126
REMARK   51  A    between atoms: _129  and  _131
REMARK   52  A    between atoms: _131  and  _132
REMARK   53  A    between atoms: _131  and  _134
REMARK   54  A    between atoms: _134  and  _135
REMARK   55  A    between atoms: _138  and  _140
REMARK   56  A    between atoms: _140  and  _141
REMARK   57  A    between atoms: _140  and  _143
REMARK   58  A    between atoms: _143  and  _144
REMARK   59  A    between atoms: _147  and  _149
REMARK   60  A    between atoms: _149  and  _150
REMARK   61  A    between atoms: _149  and  _152
REMARK   62  A    between atoms: _152  and  _153
REMARK   63  A    between atoms: _155  and  _157
REMARK   64  A    between atoms: _157  and  _158
REMARK   65  A    between atoms: _157  and  _160
REMARK   66  A    between atoms: _160  and  _161
REMARK   67  A    between atoms: _164  and  _166
REMARK   68  A    between atoms: _166  and  _167
REMARK   69  A    between atoms: _166  and  _169
REMARK   70  A    between atoms: _169  and  _170
REMARK   71  A    between atoms: _172  and  _174
REMARK   72  A    between atoms: _174  and  _175
REMARK   73  A    between atoms: _174  and  _177
REMARK   74  A    between atoms: _177  and  _178
REMARK   75  A    between atoms: _183  and  _185
REMARK   76  A    between atoms: _185  and  _186
REMARK   77  A    between atoms: _185  and  _188
REMARK   78  A    between atoms: _188  and  _189
REMARK   79  A    between atoms: _192  and  _194
REMARK   80  A    between atoms: _194  and  _195
REMARK   81  A    between atoms: _194  and  _197
REMARK   82  A    between atoms: _199  and  _201
REMARK   83  A    between atoms: _201  and  _202
REMARK   84  A    between atoms: _204  and  _206
REMARK   85  A    between atoms: _206  and  _207
REMARK   86  A    between atoms: _206  and  _209
REMARK   87  A    between atoms: _209  and  _210
REMARK   88  A    between atoms: _213  and  _215
REMARK   89  A    between atoms: _215  and  _216
REMARK   90  A    between atoms: _215  and  _218
REMARK   91  A    between atoms: _218  and  _219
REMARK   92  A    between atoms: _222  and  _224
REMARK   93  A    between atoms: _224  and  _225
REMARK   94  A    between atoms: _224  and  _227
REMARK   95  A    between atoms: _227  and  _228
REMARK   96  A    between atoms: _230  and  _232
REMARK   97  A    between atoms: _232  and  _233
REMARK   98  A    between atoms: _232  and  _235
REMARK   99  A    between atoms: _237  and  _239
REMARK  100  A    between atoms: _239  and  _240
REMARK  101  A    between atoms: _239  and  _242
REMARK  102  A    between atoms: _242  and  _243
REMARK  103  A    between atoms: _245  and  _247
REMARK  104  A    between atoms: _247  and  _248
REMARK  105  A    between atoms: _247  and  _250
REMARK  106  A    between atoms: _250  and  _251
REMARK  107  A    between atoms: _253  and  _255
REMARK  108  A    between atoms: _255  and  _256
REMARK  109  A    between atoms: _255  and  _258
REMARK  110  A    between atoms: _258  and  _259
REMARK  111  A    between atoms: _264  and  _266
REMARK  112  A    between atoms: _266  and  _267
REMARK  113  A    between atoms: _266  and  _269
REMARK  114  A    between atoms: _269  and  _270
REMARK  115  A    between atoms: _275  and  _276
REMARK  116  A    between atoms: _278  and  _280
REMARK  117  A    between atoms: _280  and  _281
REMARK  118  A    between atoms: _280  and  _283
REMARK  119  A    between atoms: _283  and  _284
REMARK  120  A    between atoms: _287  and  _289
REMARK  121  A    between atoms: _289  and  _290
REMARK  122  A    between atoms: _289  and  _292
REMARK  123  A    between atoms: _292  and  _293
REMARK  124  A    between atoms: _296  and  _298
REMARK  125  A    between atoms: _298  and  _299
REMARK  126  A    between atoms: _298  and  _301
REMARK  127  A    between atoms: _301  and  _302
REMARK  128  A    between atoms: _302  and  _303
REMARK  129  A    between atoms: _303  and  _304
REMARK  130  A    between atoms: _313  and  _315
REMARK  131  A    between atoms: _315  and  _316
REMARK  132  A    between atoms: _315  and  _318
REMARK  133  A    between atoms: _318  and  _319
REMARK  134  A    between atoms: _323  and  _324
REMARK  135  A    between atoms: _329  and  _331
REMARK  136  A    between atoms: _331  and  _332
REMARK  137  A    between atoms: _331  and  _334
REMARK  138  A    between atoms: _334  and  _335
REMARK  139  A    between atoms: _335  and  _336
REMARK  140  A    between atoms: _336  and  _337
REMARK  141  A    between atoms: _346  and  _348
REMARK  142  A    between atoms: _348  and  _349
REMARK  143  A    between atoms: _348  and  _351
REMARK  144  A    between atoms: _351  and  _352
REMARK  145  A    between atoms: _352  and  _353
REMARK  146  A    between atoms: _356  and  _358
REMARK  147  A    between atoms: _358  and  _359
REMARK  148  A    between atoms: _358  and  _361
REMARK  149  A    between atoms: _364  and  _366
REMARK  150  A    between atoms: _366  and  _367
REMARK  151  A    between atoms: _366  and  _369
REMARK  152  A    between atoms: _369  and  _370
REMARK  153  A    between atoms: _375  and  _377
REMARK  154  A    between atoms: _377  and  _378
REMARK  155  A    between atoms: _377  and  _380
REMARK  156  A    between atoms: _380  and  _381
REMARK  157  A    between atoms: _383  and  _385
REMARK  158  A    between atoms: _385  and  _386
REMARK  159  A    between atoms: _385  and  _388
REMARK  160  A    between atoms: _388  and  _389
REMARK  161  A    between atoms: _399  and  _401
REMARK  162  A    between atoms: _401  and  _402
REMARK  163  A    between atoms: _401  and  _404
REMARK  164  A    between atoms: _404  and  _405
REMARK  165  A    between atoms: _408  and  _410
REMARK  166  A    between atoms: _410  and  _411
REMARK  167  A    between atoms: _413  and  _415
REMARK  168  A    between atoms: _415  and  _416
REMARK  169  A    between atoms: _415  and  _418
REMARK  170  A    between atoms: _418  and  _419
REMARK  171  A    between atoms: _424  and  _426
REMARK  172  A    between atoms: _426  and  _427
REMARK  173  A    between atoms: _426  and  _429
REMARK  174  A    between atoms: _429  and  _430
REMARK  175  A    between atoms: _433  and  _435
REMARK  176  A    between atoms: _435  and  _436
REMARK  177  A    between atoms: _435  and  _438
REMARK  178  A    between atoms: _438  and  _439
REMARK  179  A    between atoms: _442  and  _444
REMARK  180  A    between atoms: _444  and  _445
REMARK  181  A    between atoms: _444  and  _447
REMARK  182  A    between atoms: _447  and  _448
REMARK  183  A    between atoms: _448  and  _449
REMARK  184  A    between atoms: _451  and  _453
REMARK  185  A    between atoms: _453  and  _454
REMARK  186  A    between atoms: _453  and  _456
REMARK  187  A    between atoms: _456  and  _457
REMARK  188  A    between atoms: _463  and  _465
REMARK  189  A    between atoms: _465  and  _466
REMARK  190  A    between atoms: _470  and  _471
REMARK  191  A    between atoms: _476  and  _478
REMARK  192  A    between atoms: _478  and  _479
REMARK  193  A    between atoms: _478  and  _481
REMARK  194  A    between atoms: _481  and  _482
REMARK  195  A    between atoms: _485  and  _487
REMARK  196  A    between atoms: _487  and  _488
REMARK  197  A    between atoms: _487  and  _490
REMARK  198  A    between atoms: _490  and  _491
REMARK  199  A    between atoms: _501  and  _503
REMARK  200  A    between atoms: _503  and  _504
REMARK  201  A    between atoms: _503  and  _506
REMARK  202  A    between atoms: _508  and  _510
REMARK  203  A    between atoms: _510  and  _511
REMARK  204  A    between atoms: _510  and  _513
REMARK  205  A    between atoms: _513  and  _514
REMARK  206  A    between atoms: _514  and  _515
REMARK  207  A    between atoms: _518  and  _520
REMARK  208  A    between atoms: _520  and  _521
REMARK  209  A    between atoms: _520  and  _523
REMARK  210  A    between atoms: _523  and  _524
REMARK  211  A    between atoms: _527  and  _529
REMARK  212  A    between atoms: _529  and  _530
REMARK  213  A    between atoms: _529  and  _532
REMARK  214  A    between atoms: _532  and  _533
REMARK  215  A    between atoms: _538  and  _539
REMARK  216  A    between atoms: _541  and  _543
REMARK  217  A    between atoms: _543  and  _544
REMARK  218  A    between atoms: _546  and  _548
REMARK  219  A    between atoms: _548  and  _549
REMARK  220  A    between atoms: _552  and  _554
REMARK  221  A    between atoms: _554  and  _555
REMARK  222  A    between atoms: _554  and  _557
REMARK  223  A    between atoms: _559  and  _561
REMARK  224  A    between atoms: _561  and  _562
REMARK  225  A    between atoms: _561  and  _564
REMARK  226  A    between atoms: _564  and  _565
REMARK  227  A    between atoms: _570  and  _571
REMARK  228  A    between atoms: _573  and  _575
REMARK  229  A    between atoms: _575  and  _576
REMARK  230  A    between atoms: _575  and  _578
REMARK  231  A    between atoms: _578  and  _579
REMARK  232  A    between atoms: _584  and  _586
REMARK  233  A    between atoms: _586  and  _587
REMARK  234  A    between atoms: _586  and  _589
REMARK  235  A    between atoms: _589  and  _590
REMARK  236  A    between atoms: _596  and  _598
REMARK  237  A    between atoms: _598  and  _599
REMARK  238  A    between atoms: _602  and  _604
REMARK  239  A    between atoms: _604  and  _605
REMARK  240  A    between atoms: _607  and  _609
REMARK  241  A    between atoms: _609  and  _610
REMARK  242  A    between atoms: _609  and  _612
REMARK  243  A    between atoms: _612  and  _613
REMARK  244  A    between atoms: _618  and  _619
REMARK  245  A    between atoms: _621  and  _623
REMARK  246  A    between atoms: _623  and  _624
REMARK  247  A    between atoms: _623  and  _626
REMARK  248  A    between atoms: _626  and  _627
REMARK  249  A    between atoms: _629  and  _631
REMARK  250  A    between atoms: _631  and  _632
REMARK  251  A    between atoms: _634  and  _636
REMARK  252  A    between atoms: _636  and  _637
REMARK                            x       y       z     vdW  Elec       q    Type
REMARK                         _______ _______ _______ _____ _____    ______ ____
ROOT
ATOM      1  CA  GLU A   1      44.436  -7.722 -23.944  0.00  0.00    +0.134 C 
ENDROOT
BRANCH   1   2
ATOM      2  N   GLU A   1      45.141  -8.876 -23.447  0.00  0.00    -0.239 NA
ATOM      3  H   GLU A   1      46.167  -8.804 -23.291  0.00  0.00    +0.142 HD
ENDBRANCH   1   2
BRANCH   1   4
ATOM      4  C   GLU A   1      45.064  -7.289 -25.246  0.00  0.00    +0.224 C 
ATOM      5  O   GLU A   1      46.279  -7.403 -25.428  0.00  0.00    -0.287 OA
ENDBRANCH   1   4
BRANCH   1   6
ATOM      6  CB  GLU A   1      44.517  -6.594 -22.925  0.00  0.00    +0.037 C 
BRANCH   6   7
ATOM      7  CG  GLU A   1      43.825  -6.941 -21.637  0.00  0.00    +0.116 C 
BRANCH   7   8
ATOM      8  CD  GLU A   1      43.833  -5.804 -20.642  0.00  0.00    +0.365 C 
ATOM      9  OE2 GLU A   1      42.740  -5.416 -20.181  0.00  0.00    -0.246 OA
ATOM     10  OE1 GLU A   1      44.922  -5.301 -20.316  0.00  0.00    -0.246 OA
ENDBRANCH   7   8
ENDBRANCH   6   7
ENDBRANCH   1   6
TORSDOF 5
REMARK  Name = ../refined-set-2016/3hkw/3hkw_pocket.pdb
REMARK  252 active torsions:
REMARK  status: ('A' for Active; 'I' for Inactive)
REMARK    1  A    between atoms: _1  and  _3
REMARK    2  A    between atoms: _3  and  _4
REMARK    3  A    between atoms: _3  and  _6
REMARK    4  A    between atoms: _6  and  _7
REMARK    5  A    between atoms: _7  and  _8
REMARK    6  A    between atoms: _8  and  _9
REMARK    7  A    between atoms: _9  and  _10
REMARK    8  A    between atoms: _14  and  _16
REMARK    9  A    between atoms: _16  and  _17
REMARK   10  A    between atoms: _16  and  _19
REMARK   11  A    between atoms: _19  and  _20
REMARK   12  A    between atoms: _20  and  _21
REMARK   13  A    between atoms: _24  and  _26
REMARK   14  A    between atoms: _26  and  _27
REMARK   15  A    between atoms: _26  and  _29
REMARK   16  A    between atoms: _29  and  _30
REMARK   17  A    between atoms: _30  and  _31
REMARK   18  A    between atoms: _31  and  _32
REMARK   19  A    between atoms: _41  and  _43
REMARK   20  A    between atoms: _43  and  _44
REMARK   21  A    between atoms: _46  and  _48
REMARK   22  A    between atoms: _48  and  _49
REMARK   23  A    between atoms: _48  and  _51
REMARK   24  A    between atoms: _51  and  _52
REMARK   25  A    between atoms: _58  and  _60
REMARK   26  A    between atoms: _60  and  _61
REMARK   27  A    between atoms: _60  and  _63
REMARK   28  A    between atoms: _63  and  _64
REMARK   29  A    between atoms: _69  and  _70
REMARK   30  A    between atoms: _72  and  _74
REMARK   31  A    between atoms: _74  and  _75
REMARK   32  A    between atoms: _74  and  _77
REMARK   33  A    between atoms: _77  and  _78
REMARK   34  A    between atoms: _81  and  _82
REMARK   35  A    between atoms: _87  and  _89
REMARK   36  A    between atoms: _89  and  _90
REMARK   37  A    between atoms: _92  and  _94
REMARK   38  A    between atoms: _94  and  _95
REMARK   39  A    between atoms: _94  and  _97
REMARK   40  A    between atoms: _97  and  _98
REMARK   41  A    between atoms: _98  and  _99
REMARK   42  A    between atoms: _104  and  _106
REMARK   43  A    between atoms: _106  and  _107
REMARK   44  A    between atoms: _106  and  _109
REMARK   45  A    between atoms: _109  and  _110
REMARK   46  A    between atoms: _110  and  _111
REMARK   47  A    between atoms: _111  and  _112
REMARK   48  A    between atoms: _121  and  _123
REMARK   49  A    between atoms: _123  and  _124
REMARK   50  A    between atoms: _123  and  _126
REMARK   51  A    between atoms: _129  and  _131
REMARK   52  A    between atoms: _131  and  _132
REMARK   53  A    between atoms: _131  and  _134
REMARK   54  A    between atoms: _134  and  _135
REMARK   55  A    between atoms: _138  and  _140
REMARK   56  A    between atoms: _140  and  _141
REMARK   57  A    between atoms: _140  and  _143
REMARK   58  A    between atoms: _143  and  _144
REMARK   59  A    between atoms: _147  and  _149
REMARK   60  A    between atoms: _149  and  _150
REMARK   61  A    between atoms: _149  and  _152
REMARK   62  A    between atoms: _152  and  _153
REMARK   63  A    between atoms: _155  and  _157
REMARK   64  A    between atoms: _157  and  _158
REMARK   65  A    between atoms: _157  and  _160
REMARK   66  A    between atoms: _160  and  _161
REMARK   67  A    between atoms: _164  and  _166
REMARK   68  A    between atoms: _166  and  _167
REMARK   69  A    between atoms: _166  and  _169
REMARK   70  A    between atoms: _169  and  _170
REMARK   71  A    between atoms: _172  and  _174
REMARK   72  A    between atoms: _174  and  _175
REMARK   73  A    between atoms: _174  and  _177
REMARK   74  A    between atoms: _177  and  _178
REMARK   75  A    between atoms: _183  and  _185
REMARK   76  A    between atoms: _185  and  _186
REMARK   77  A    between atoms: _185  and  _188
REMARK   78  A    between atoms: _188  and  _189
REMARK   79  A    between atoms: _192  and  _194
REMARK   80  A    between atoms: _194  and  _195
REMARK   81  A    between atoms: _194  and  _197
REMARK   82  A    between atoms: _199  and  _201
REMARK   83  A    between atoms: _201  and  _202
REMARK   84  A    between atoms: _204  and  _206
REMARK   85  A    between atoms: _206  and  _207
REMARK   86  A    between atoms: _206  and  _209
REMARK   87  A    between atoms: _209  and  _210
REMARK   88  A    between atoms: _213  and  _215
REMARK   89  A    between atoms: _215  and  _216
REMARK   90  A    between atoms: _215  and  _218
REMARK   91  A    between atoms: _218  and  _219
REMARK   92  A    between atoms: _222  and  _224
REMARK   93  A    between atoms: _224  and  _225
REMARK   94  A    between atoms: _224  and  _227
REMARK   95  A    between atoms: _227  and  _228
REMARK   96  A    between atoms: _230  and  _232
REMARK   97  A    between atoms: _232  and  _233
REMARK   98  A    between atoms: _232  and  _235
REMARK   99  A    between atoms: _237  and  _239
REMARK  100  A    between atoms: _239  and  _240
REMARK  101  A    between atoms: _239  and  _242
REMARK  102  A    between atoms: _242  and  _243
REMARK  103  A    between atoms: _245  and  _247
REMARK  104  A    between atoms: _247  and  _248
REMARK  105  A    between atoms: _247  and  _250
REMARK  106  A    between atoms: _250  and  _251
REMARK  107  A    between atoms: _253  and  _255
REMARK  108  A    between atoms: _255  and  _256
REMARK  109  A    between atoms: _255  and  _258
REMARK  110  A    between atoms: _258  and  _259
REMARK  111  A    between atoms: _264  and  _266
REMARK  112  A    between atoms: _266  and  _267
REMARK  113  A    between atoms: _266  and  _269
REMARK  114  A    between atoms: _269  and  _270
REMARK  115  A    between atoms: _275  and  _276
REMARK  116  A    between atoms: _278  and  _280
REMARK  117  A    between atoms: _280  and  _281
REMARK  118  A    between atoms: _280  and  _283
REMARK  119  A    between atoms: _283  and  _284
REMARK  120  A    between atoms: _287  and  _289
REMARK  121  A    between atoms: _289  and  _290
REMARK  122  A    between atoms: _289  and  _292
REMARK  123  A    between atoms: _292  and  _293
REMARK  124  A    between atoms: _296  and  _298
REMARK  125  A    between atoms: _298  and  _299
REMARK  126  A    between atoms: _298  and  _301
REMARK  127  A    between atoms: _301  and  _302
REMARK  128  A    between atoms: _302  and  _303
REMARK  129  A    between atoms: _303  and  _304
REMARK  130  A    between atoms: _313  and  _315
REMARK  131  A    between atoms: _315  and  _316
REMARK  132  A    between atoms: _315  and  _318
REMARK  133  A    between atoms: _318  and  _319
REMARK  134  A    between atoms: _323  and  _324
REMARK  135  A    between atoms: _329  and  _331
REMARK  136  A    between atoms: _331  and  _332
REMARK  137  A    between atoms: _331  and  _334
REMARK  138  A    between atoms: _334  and  _335
REMARK  139  A    between atoms: _335  and  _336
REMARK  140  A    between atoms: _336  and  _337
REMARK  141  A    between atoms: _346  and  _348
REMARK  142  A    between atoms: _348  and  _349
REMARK  143  A    between atoms: _348  and  _351
REMARK  144  A    between atoms: _351  and  _352
REMARK  145  A    between atoms: _352  and  _353
REMARK  146  A    between atoms: _356  and  _358
REMARK  147  A    between atoms: _358  and  _359
REMARK  148  A    between atoms: _358  and  _361
REMARK  149  A    between atoms: _364  and  _366
REMARK  150  A    between atoms: _366  and  _367
REMARK  151  A    between atoms: _366  and  _369
REMARK  152  A    between atoms: _369  and  _370
REMARK  153  A    between atoms: _375  and  _377
REMARK  154  A    between atoms: _377  and  _378
REMARK  155  A    between atoms: _377  and  _380
REMARK  156  A    between atoms: _380  and  _381
REMARK  157  A    between atoms: _383  and  _385
REMARK  158  A    between atoms: _385  and  _386
REMARK  159  A    between atoms: _385  and  _388
REMARK  160  A    between atoms: _388  and  _389
REMARK  161  A    between atoms: _399  and  _401
REMARK  162  A    between atoms: _401  and  _402
REMARK  163  A    between atoms: _401  and  _404
REMARK  164  A    between atoms: _404  and  _405
REMARK  165  A    between atoms: _408  and  _410
REMARK  166  A    between atoms: _410  and  _411
REMARK  167  A    between atoms: _413  and  _415
REMARK  168  A    between atoms: _415  and  _416
REMARK  169  A    between atoms: _415  and  _418
REMARK  170  A    between atoms: _418  and  _419
REMARK  171  A    between atoms: _424  and  _426
REMARK  172  A    between atoms: _426  and  _427
REMARK  173  A    between atoms: _426  and  _429
REMARK  174  A    between atoms: _429  and  _430
REMARK  175  A    between atoms: _433  and  _435
REMARK  176  A    between atoms: _435  and  _436
REMARK  177  A    between atoms: _435  and  _438
REMARK  178  A    between atoms: _438  and  _439
REMARK  179  A    between atoms: _442  and  _444
REMARK  180  A    between atoms: _444  and  _445
REMARK  181  A    between atoms: _444  and  _447
REMARK  182  A    between atoms: _447  and  _448
REMARK  183  A    between atoms: _448  and  _449
REMARK  184  A    between atoms: _451  and  _453
REMARK  185  A    between atoms: _453  and  _454
REMARK  186  A    between atoms: _453  and  _456
REMARK  187  A    between atoms: _456  and  _457
REMARK  188  A    between atoms: _463  and  _465
REMARK  189  A    between atoms: _465  and  _466
REMARK  190  A    between atoms: _470  and  _471
REMARK  191  A    between atoms: _476  and  _478
REMARK  192  A    between atoms: _478  and  _479
REMARK  193  A    between atoms: _478  and  _481
REMARK  194  A    between atoms: _481  and  _482
REMARK  195  A    between atoms: _485  and  _487
REMARK  196  A    between atoms: _487  and  _488
REMARK  197  A    between atoms: _487  and  _490
REMARK  198  A    between atoms: _490  and  _491
REMARK  199  A    between atoms: _501  and  _503
REMARK  200  A    between atoms: _503  and  _504
REMARK  201  A    between atoms: _503  and  _506
REMARK  202  A    between atoms: _508  and  _510
REMARK  203  A    between atoms: _510  and  _511
REMARK  204  A    between atoms: _510  and  _513
REMARK  205  A    between atoms: _513  and  _514
REMARK  206  A    between atoms: _514  and  _515
REMARK  207  A    between atoms: _518  and  _520
REMARK  208  A    between atoms: _520  and  _521
REMARK  209  A    between atoms: _520  and  _523
REMARK  210  A    between atoms: _523  and  _524
REMARK  211  A    between atoms: _527  and  _529
REMARK  212  A    between atoms: _529  and  _530
REMARK  213  A    between atoms: _529  and  _532
REMARK  214  A    between atoms: _532  and  _533
REMARK  215  A    between atoms: _538  and  _539
REMARK  216  A    between atoms: _541  and  _543
REMARK  217  A    between atoms: _543  and  _544
REMARK  218  A    between atoms: _546  and  _548
REMARK  219  A    between atoms: _548  and  _549
REMARK  220  A    between atoms: _552  and  _554
REMARK  221  A    between atoms: _554  and  _555
REMARK  222  A    between atoms: _554  and  _557
REMARK  223  A    between atoms: _559  and  _561
REMARK  224  A    between atoms: _561  and  _562
REMARK  225  A    between atoms: _561  and  _564
REMARK  226  A    between atoms: _564  and  _565
REMARK  227  A    between atoms: _570  and  _571
REMARK  228  A    between atoms: _573  and  _575
REMARK  229  A    between atoms: _575  and  _576
REMARK  230  A    between atoms: _575  and  _578
REMARK  231  A    between atoms: _578  and  _579
REMARK  232  A    between atoms: _584  and  _586
REMARK  233  A    between atoms: _586  and  _587
REMARK  234  A    between atoms: _586  and  _589
REMARK  235  A    between atoms: _589  and  _590
REMARK  236  A    between atoms: _596  and  _598
REMARK  237  A    between atoms: _598  and  _599
REMARK  238  A    between atoms: _602  and  _604
REMARK  239  A    between atoms: _604  and  _605
REMARK  240  A    between atoms: _607  and  _609
REMARK  241  A    between atoms: _609  and  _610
REMARK  242  A    between atoms: _609  and  _612
REMARK  243  A    between atoms: _612  and  _613
REMARK  244  A    between atoms: _618  and  _619
REMARK  245  A    between atoms: _621  and  _623
REMARK  246  A    between atoms: _623  and  _624
REMARK  247  A    between atoms: _623  and  _626
REMARK  248  A    between atoms: _626  and  _627
REMARK  249  A    between atoms: _629  and  _631
REMARK  250  A    between atoms: _631  and  _632
REMARK  251  A    between atoms: _634  and  _636
REMARK  252  A    between atoms: _636  and  _637
REMARK                            x       y       z     vdW  Elec       q    Type
REMARK                         _______ _______ _______ _____ _____    ______ ____
ROOT
ATOM      1  NE  ARG A   1      44.932  -4.187 -17.546  0.00  0.00    -0.265 N 
ATOM      2  HE  ARG A   1      44.994  -5.224 -17.599  0.00  0.00    +0.259 HD
ATOM      3  CZ  ARG A   1      43.722  -3.635 -17.621  0.00  0.00    +0.342 C 
ATOM      4  NH2 ARG A   1      43.568  -2.313 -17.575  0.00  0.00    -0.292 N 
ATOM      5 HH21 ARG A   1      44.399  -1.696 -17.479  0.00  0.00    +0.255 HD
ATOM      6 HH22 ARG A   1      42.616  -1.898 -17.635  0.00  0.00    +0.255 HD
ATOM      7  NH1 ARG A   1      42.650  -4.410 -17.749  0.00  0.00    -0.292 N 
ATOM      8 HH11 ARG A   1      42.758  -5.444 -17.790  0.00  0.00    +0.255 HD
ATOM      9 HH12 ARG A   1      41.704  -3.983 -17.808  0.00  0.00    +0.255 HD
ENDROOT
BRANCH   1  10
ATOM     10  CD  ARG A   1      46.182  -3.436 -17.394  0.00  0.00    +0.174 C 
BRANCH  10  11
ATOM     11  CG  ARG A   1      47.454  -4.254 -17.661  0.00  0.00    +0.045 C 
BRANCH  11  12
ATOM     12  CB  ARG A   1      47.420  -5.604 -16.984  0.00  0.00    +0.029 C 
BRANCH  12  13
ATOM     13  CA  ARG A   1      48.738  -6.378 -16.991  0.00  0.00    +0.133 C 
BRANCH  13  14
ATOM     14  N   ARG A   1      49.161  -6.684 -18.345  0.00  0.00    -0.239 NA
ATOM     15  H   ARG A   1      48.497  -6.559 -19.135  0.00  0.00    +0.142 HD
ENDBRANCH  13  14
BRANCH  13  16
ATOM     16  C   ARG A   1      48.550  -7.694 -16.236  0.00  0.00    +0.224 C 
ATOM     17  O   ARG A   1      48.358  -8.765 -16.818  0.00  0.00    -0.287 OA
ENDBRANCH  13  16
ENDBRANCH  12  13
ENDBRANCH  11  12
ENDBRANCH  10  11
ENDBRANCH   1  10
TORSDOF 6
REMARK  Name = ../refined-set-2016/3hkw/3hkw_pocket.pdb
REMARK  252 active torsions:
REMARK  status: ('A' for Active; 'I' for Inactive)
REMARK    1  A    between atoms: _1  and  _3
REMARK    2  A    between atoms: _3  and  _4
REMARK    3  A    between atoms: _3  and  _6
REMARK    4  A    between atoms: _6  and  _7
REMARK    5  A    between atoms: _7  and  _8
REMARK    6  A    between atoms: _8  and  _9
REMARK    7  A    between atoms: _9  and  _10
REMARK    8  A    between atoms: _14  and  _16
REMARK    9  A    between atoms: _16  and  _17
REMARK   10  A    between atoms: _16  and  _19
REMARK   11  A    between atoms: _19  and  _20
REMARK   12  A    between atoms: _20  and  _21
REMARK   13  A    between atoms: _24  and  _26
REMARK   14  A    between atoms: _26  and  _27
REMARK   15  A    between atoms: _26  and  _29
REMARK   16  A    between atoms: _29  and  _30
REMARK   17  A    between atoms: _30  and  _31
REMARK   18  A    between atoms: _31  and  _32
REMARK   19  A    between atoms: _41  and  _43
REMARK   20  A    between atoms: _43  and  _44
REMARK   21  A    between atoms: _46  and  _48
REMARK   22  A    between atoms: _48  and  _49
REMARK   23  A    between atoms: _48  and  _51
REMARK   24  A    between atoms: _51  and  _52
REMARK   25  A    between atoms: _58  and  _60
REMARK   26  A    between atoms: _60  and  _61
REMARK   27  A    between atoms: _60  and  _63
REMARK   28  A    between atoms: _63  and  _64
REMARK   29  A    between atoms: _69  and  _70
REMARK   30  A    between atoms: _72  and  _74
REMARK   31  A    between atoms: _74  and  _75
REMARK   32  A    between atoms: _74  and  _77
REMARK   33  A    between atoms: _77  and  _78
REMARK   34  A    between atoms: _81  and  _82
REMARK   35  A    between atoms: _87  and  _89
REMARK   36  A    between atoms: _89  and  _90
REMARK   37  A    between atoms: _92  and  _94
REMARK   38  A    between atoms: _94  and  _95
REMARK   39  A    between atoms: _94  and  _97
REMARK   40  A    between atoms: _97  and  _98
REMARK   41  A    between atoms: _98  and  _99
REMARK   42  A    between atoms: _104  and  _106
REMARK   43  A    between atoms: _106  and  _107
REMARK   44  A    between atoms: _106  and  _109
REMARK   45  A    between atoms: _109  and  _110
REMARK   46  A    between atoms: _110  and  _111
REMARK   47  A    between atoms: _111  and  _112
REMARK   48  A    between atoms: _121  and  _123
REMARK   49  A    between atoms: _123  and  _124
REMARK   50  A    between atoms: _123  and  _126
REMARK   51  A    between atoms: _129  and  _131
REMARK   52  A    between atoms: _131  and  _132
REMARK   53  A    between atoms: _131  and  _134
REMARK   54  A    between atoms: _134  and  _135
REMARK   55  A    between atoms: _138  and  _140
REMARK   56  A    between atoms: _140  and  _141
REMARK   57  A    between atoms: _140  and  _143
REMARK   58  A    between atoms: _143  and  _144
REMARK   59  A    between atoms: _147  and  _149
REMARK   60  A    between atoms: _149  and  _150
REMARK   61  A    between atoms: _149  and  _152
REMARK   62  A    between atoms: _152  and  _153
REMARK   63  A    between atoms: _155  and  _157
REMARK   64  A    between atoms: _157  and  _158
REMARK   65  A    between atoms: _157  and  _160
REMARK   66  A    between atoms: _160  and  _161
REMARK   67  A    between atoms: _164  and  _166
REMARK   68  A    between atoms: _166  and  _167
REMARK   69  A    between atoms: _166  and  _169
REMARK   70  A    between atoms: _169  and  _170
REMARK   71  A    between atoms: _172  and  _174
REMARK   72  A    between atoms: _174  and  _175
REMARK   73  A    between atoms: _174  and  _177
REMARK   74  A    between atoms: _177  and  _178
REMARK   75  A    between atoms: _183  and  _185
REMARK   76  A    between atoms: _185  and  _186
REMARK   77  A    between atoms: _185  and  _188
REMARK   78  A    between atoms: _188  and  _189
REMARK   79  A    between atoms: _192  and  _194
REMARK   80  A    between atoms: _194  and  _195
REMARK   81  A    between atoms: _194  and  _197
REMARK   82  A    between atoms: _199  and  _201
REMARK   83  A    between atoms: _201  and  _202
REMARK   84  A    between atoms: _204  and  _206
REMARK   85  A    between atoms: _206  and  _207
REMARK   86  A    between atoms: _206  and  _209
REMARK   87  A    between atoms: _209  and  _210
REMARK   88  A    between atoms: _213  and  _215
REMARK   89  A    between atoms: _215  and  _216
REMARK   90  A    between atoms: _215  and  _218
REMARK   91  A    between atoms: _218  and  _219
REMARK   92  A    between atoms: _222  and  _224
REMARK   93  A    between atoms: _224  and  _225
REMARK   94  A    between atoms: _224  and  _227
REMARK   95  A    between atoms: _227  and  _228
REMARK   96  A    between atoms: _230  and  _232
REMARK   97  A    between atoms: _232  and  _233
REMARK   98  A    between atoms: _232  and  _235
REMARK   99  A    between atoms: _237  and  _239
REMARK  100  A    between atoms: _239  and  _240
REMARK  101  A    between atoms: _239  and  _242
REMARK  102  A    between atoms: _242  and  _243
REMARK  103  A    between atoms: _245  and  _247
REMARK  104  A    between atoms: _247  and  _248
REMARK  105  A    between atoms: _247  and  _250
REMARK  106  A    between atoms: _250  and  _251
REMARK  107  A    between atoms: _253  and  _255
REMARK  108  A    between atoms: _255  and  _256
REMARK  109  A    between atoms: _255  and  _258
REMARK  110  A    between atoms: _258  and  _259
REMARK  111  A    between atoms: _264  and  _266
REMARK  112  A    between atoms: _266  and  _267
REMARK  113  A    between atoms: _266  and  _269
REMARK  114  A    between atoms: _269  and  _270
REMARK  115  A    between atoms: _275  and  _276
REMARK  116  A    between atoms: _278  and  _280
REMARK  117  A    between atoms: _280  and  _281
REMARK  118  A    between atoms: _280  and  _283
REMARK  119  A    between atoms: _283  and  _284
REMARK  120  A    between atoms: _287  and  _289
REMARK  121  A    between atoms: _289  and  _290
REMARK  122  A    between atoms: _289  and  _292
REMARK  123  A    between atoms: _292  and  _293
REMARK  124  A    between atoms: _296  and  _298
REMARK  125  A    between atoms: _298  and  _299
REMARK  126  A    between atoms: _298  and  _301
REMARK  127  A    between atoms: _301  and  _302
REMARK  128  A    between atoms: _302  and  _303
REMARK  129  A    between atoms: _303  and  _304
REMARK  130  A    between atoms: _313  and  _315
REMARK  131  A    between atoms: _315  and  _316
REMARK  132  A    between atoms: _315  and  _318
REMARK  133  A    between atoms: _318  and  _319
REMARK  134  A    between atoms: _323  and  _324
REMARK  135  A    between atoms: _329  and  _331
REMARK  136  A    between atoms: _331  and  _332
REMARK  137  A    between atoms: _331  and  _334
REMARK  138  A    between atoms: _334  and  _335
REMARK  139  A    between atoms: _335  and  _336
REMARK  140  A    between atoms: _336  and  _337
REMARK  141  A    between atoms: _346  and  _348
REMARK  142  A    between atoms: _348  and  _349
REMARK  143  A    between atoms: _348  and  _351
REMARK  144  A    between atoms: _351  and  _352
REMARK  145  A    between atoms: _352  and  _353
REMARK  146  A    between atoms: _356  and  _358
REMARK  147  A    between atoms: _358  and  _359
REMARK  148  A    between atoms: _358  and  _361
REMARK  149  A    between atoms: _364  and  _366
REMARK  150  A    between atoms: _366  and  _367
REMARK  151  A    between atoms: _366  and  _369
REMARK  152  A    between atoms: _369  and  _370
REMARK  153  A    between atoms: _375  and  _377
REMARK  154  A    between atoms: _377  and  _378
REMARK  155  A    between atoms: _377  and  _380
REMARK  156  A    between atoms: _380  and  _381
REMARK  157  A    between atoms: _383  and  _385
REMARK  158  A    between atoms: _385  and  _386
REMARK  159  A    between atoms: _385  and  _388
REMARK  160  A    between atoms: _388  and  _389
REMARK  161  A    between atoms: _399  and  _401
REMARK  162  A    between atoms: _401  and  _402
REMARK  163  A    between atoms: _401  and  _404
REMARK  164  A    between atoms: _404  and  _405
REMARK  165  A    between atoms: _408  and  _410
REMARK  166  A    between atoms: _410  and  _411
REMARK  167  A    between atoms: _413  and  _415
REMARK  168  A    between atoms: _415  and  _416
REMARK  169  A    between atoms: _415  and  _418
REMARK  170  A    between atoms: _418  and  _419
REMARK  171  A    between atoms: _424  and  _426
REMARK  172  A    between atoms: _426  and  _427
REMARK  173  A    between atoms: _426  and  _429
REMARK  174  A    between atoms: _429  and  _430
REMARK  175  A    between atoms: _433  and  _435
REMARK  176  A    between atoms: _435  and  _436
REMARK  177  A    between atoms: _435  and  _438
REMARK  178  A    between atoms: _438  and  _439
REMARK  179  A    between atoms: _442  and  _444
REMARK  180  A    between atoms: _444  and  _445
REMARK  181  A    between atoms: _444  and  _447
REMARK  182  A    between atoms: _447  and  _448
REMARK  183  A    between atoms: _448  and  _449
REMARK  184  A    between atoms: _451  and  _453
REMARK  185  A    between atoms: _453  and  _454
REMARK  186  A    between atoms: _453  and  _456
REMARK  187  A    between atoms: _456  and  _457
REMARK  188  A    between atoms: _463  and  _465
REMARK  189  A    between atoms: _465  and  _466
REMARK  190  A    between atoms: _470  and  _471
REMARK  191  A    between atoms: _476  and  _478
REMARK  192  A    between atoms: _478  and  _479
REMARK  193  A    between atoms: _478  and  _481
REMARK  194  A    between atoms: _481  and  _482
REMARK  195  A    between atoms: _485  and  _487
REMARK  196  A    between atoms: _487  and  _488
REMARK  197  A    between atoms: _487  and  _490
REMARK  198  A    between atoms: _490  and  _491
REMARK  199  A    between atoms: _501  and  _503
REMARK  200  A    between atoms: _503  and  _504
REMARK  201  A    between atoms: _503  and  _506
REMARK  202  A    between atoms: _508  and  _510
REMARK  203  A    between atoms: _510  and  _511
REMARK  204  A    between atoms: _510  and  _513
REMARK  205  A    between atoms: _513  and  _514
REMARK  206  A    between atoms: _514  and  _515
REMARK  207  A    between atoms: _518  and  _520
REMARK  208  A    between atoms: _520  and  _521
REMARK  209  A    between atoms: _520  and  _523
REMARK  210  A    between atoms: _523  and  _524
REMARK  211  A    between atoms: _527  and  _529
REMARK  212  A    between atoms: _529  and  _530
REMARK  213  A    between atoms: _529  and  _532
REMARK  214  A    between atoms: _532  and  _533
REMARK  215  A    between atoms: _538  and  _539
REMARK  216  A    between atoms: _541  and  _543
REMARK  217  A    between atoms: _543  and  _544
REMARK  218  A    between atoms: _546  and  _548
REMARK  219  A    between atoms: _548  and  _549
REMARK  220  A    between atoms: _552  and  _554
REMARK  221  A    between atoms: _554  and  _555
REMARK  222  A    between atoms: _554  and  _557
REMARK  223  A    between atoms: _559  and  _561
REMARK  224  A    between atoms: _561  and  _562
REMARK  225  A    between atoms: _561  and  _564
REMARK  226  A    between atoms: _564  and  _565
REMARK  227  A    between atoms: _570  and  _571
REMARK  228  A    between atoms: _573  and  _575
REMARK  229  A    between atoms: _575  and  _576
REMARK  230  A    between atoms: _575  and  _578
REMARK  231  A    between atoms: _578  and  _579
REMARK  232  A    between atoms: _584  and  _586
REMARK  233  A    between atoms: _586  and  _587
REMARK  234  A    between atoms: _586  and  _589
REMARK  235  A    between atoms: _589  and  _590
REMARK  236  A    between atoms: _596  and  _598
REMARK  237  A    between atoms: _598  and  _599
REMARK  238  A    between atoms: _602  and  _604
REMARK  239  A    between atoms: _604  and  _605
REMARK  240  A    between atoms: _607  and  _609
REMARK  241  A    between atoms: _609  and  _610
REMARK  242  A    between atoms: _609  and  _612
REMARK  243  A    between atoms: _612  and  _613
REMARK  244  A    between atoms: _618  and  _619
REMARK  245  A    between atoms: _621  and  _623
REMARK  246  A    between atoms: _623  and  _624
REMARK  247  A    between atoms: _623  and  _626
REMARK  248  A    between atoms: _626  and  _627
REMARK  249  A    between atoms: _629  and  _631
REMARK  250  A    between atoms: _631  and  _632
REMARK  251  A    between atoms: _634  and  _636
REMARK  252  A    between atoms: _636  and  _637
REMARK                            x       y       z     vdW  Elec       q    Type
REMARK                         _______ _______ _______ _____ _____    ______ ____
ROOT
ATOM      1  CA  PHE A   2      30.007   5.599 -11.921  0.00  0.00    +0.141 C 
ENDROOT
BRANCH   1   3
ATOM      2  C   GLY A   1      30.822   7.876 -12.076  0.00  0.00    +0.240 C 
ATOM      3  N   PHE A   2      30.750   6.740 -11.380  0.00  0.00    -0.298 N 
ATOM      4  H   PHE A   2      31.220   6.665 -10.455  0.00  0.00    +0.150 HD
ATOM      5  O   GLY A   1      30.138   8.079 -13.082  0.00  0.00    -0.274 OA
BRANCH   2   6
ATOM      6  CA  GLY A   1      31.752   8.944 -11.560  0.00  0.00    +0.169 C 
BRANCH   6   7
ATOM      7  N   GLY A   1      31.961   8.934 -10.123  0.00  0.00    -0.236 NA
ATOM      8  H   GLY A   1      32.878   8.622  -9.744  0.00  0.00    +0.142 HD
ENDBRANCH   6   7
ENDBRANCH   2   6
ENDBRANCH   1   3
BRANCH   1   9
ATOM      9  C   PHE A   2      28.487   5.718 -11.799  0.00  0.00    +0.227 C 
ATOM     10  O   PHE A   2      27.766   4.834 -12.289  0.00  0.00    -0.286 OA
ENDBRANCH   1   9
BRANCH   1  11
ATOM     11  CB  PHE A   2      30.502   4.286 -11.332  0.00  0.00    +0.054 C 
BRANCH  11  12
ATOM     12  CG  PHE A   2      31.961   3.995 -11.626  0.00  0.00    -0.020 A 
ATOM     13  CD2 PHE A   2      32.890   3.879 -10.607  0.00  0.00    -0.004 A 
ATOM     14  CE2 PHE A   2      34.213   3.583 -10.871  0.00  0.00    -0.000 A 
ATOM     15  CZ  PHE A   2      34.610   3.372 -12.157  0.00  0.00    -0.000 A 
ATOM     16  CE1 PHE A   2      33.701   3.472 -13.173  0.00  0.00    -0.000 A 
ATOM     17  CD1 PHE A   2      32.383   3.780 -12.909  0.00  0.00    -0.004 A 
ENDBRANCH  11  12
ENDBRANCH   1  11
TORSDOF 6
REMARK  Name = ../refined-set-2016/3hkw/3hkw_pocket.pdb
REMARK  252 active torsions:
REMARK  status: ('A' for Active; 'I' for Inactive)
REMARK    1  A    between atoms: _1  and  _3
REMARK    2  A    between atoms: _3  and  _4
REMARK    3  A    between atoms: _3  and  _6
REMARK    4  A    between atoms: _6  and  _7
REMARK    5  A    between atoms: _7  and  _8
REMARK    6  A    between atoms: _8  and  _9
REMARK    7  A    between atoms: _9  and  _10
REMARK    8  A    between atoms: _14  and  _16
REMARK    9  A    between atoms: _16  and  _17
REMARK   10  A    between atoms: _16  and  _19
REMARK   11  A    between atoms: _19  and  _20
REMARK   12  A    between atoms: _20  and  _21
REMARK   13  A    between atoms: _24  and  _26
REMARK   14  A    between atoms: _26  and  _27
REMARK   15  A    between atoms: _26  and  _29
REMARK   16  A    between atoms: _29  and  _30
REMARK   17  A    between atoms: _30  and  _31
REMARK   18  A    between atoms: _31  and  _32
REMARK   19  A    between atoms: _41  and  _43
REMARK   20  A    between atoms: _43  and  _44
REMARK   21  A    between atoms: _46  and  _48
REMARK   22  A    between atoms: _48  and  _49
REMARK   23  A    between atoms: _48  and  _51
REMARK   24  A    between atoms: _51  and  _52
REMARK   25  A    between atoms: _58  and  _60
REMARK   26  A    between atoms: _60  and  _61
REMARK   27  A    between atoms: _60  and  _63
REMARK   28  A    between atoms: _63  and  _64
REMARK   29  A    between atoms: _69  and  _70
REMARK   30  A    between atoms: _72  and  _74
REMARK   31  A    between atoms: _74  and  _75
REMARK   32  A    between atoms: _74  and  _77
REMARK   33  A    between atoms: _77  and  _78
REMARK   34  A    between atoms: _81  and  _82
REMARK   35  A    between atoms: _87  and  _89
REMARK   36  A    between atoms: _89  and  _90
REMARK   37  A    between atoms: _92  and  _94
REMARK   38  A    between atoms: _94  and  _95
REMARK   39  A    between atoms: _94  and  _97
REMARK   40  A    between atoms: _97  and  _98
REMARK   41  A    between atoms: _98  and  _99
REMARK   42  A    between atoms: _104  and  _106
REMARK   43  A    between atoms: _106  and  _107
REMARK   44  A    between atoms: _106  and  _109
REMARK   45  A    between atoms: _109  and  _110
REMARK   46  A    between atoms: _110  and  _111
REMARK   47  A    between atoms: _111  and  _112
REMARK   48  A    between atoms: _121  and  _123
REMARK   49  A    between atoms: _123  and  _124
REMARK   50  A    between atoms: _123  and  _126
REMARK   51  A    between atoms: _129  and  _131
REMARK   52  A    between atoms: _131  and  _132
REMARK   53  A    between atoms: _131  and  _134
REMARK   54  A    between atoms: _134  and  _135
REMARK   55  A    between atoms: _138  and  _140
REMARK   56  A    between atoms: _140  and  _141
REMARK   57  A    between atoms: _140  and  _143
REMARK   58  A    between atoms: _143  and  _144
REMARK   59  A    between atoms: _147  and  _149
REMARK   60  A    between atoms: _149  and  _150
REMARK   61  A    between atoms: _149  and  _152
REMARK   62  A    between atoms: _152  and  _153
REMARK   63  A    between atoms: _155  and  _157
REMARK   64  A    between atoms: _157  and  _158
REMARK   65  A    between atoms: _157  and  _160
REMARK   66  A    between atoms: _160  and  _161
REMARK   67  A    between atoms: _164  and  _166
REMARK   68  A    between atoms: _166  and  _167
REMARK   69  A    between atoms: _166  and  _169
REMARK   70  A    between atoms: _169  and  _170
REMARK   71  A    between atoms: _172  and  _174
REMARK   72  A    between atoms: _174  and  _175
REMARK   73  A    between atoms: _174  and  _177
REMARK   74  A    between atoms: _177  and  _178
REMARK   75  A    between atoms: _183  and  _185
REMARK   76  A    between atoms: _185  and  _186
REMARK   77  A    between atoms: _185  and  _188
REMARK   78  A    between atoms: _188  and  _189
REMARK   79  A    between atoms: _192  and  _194
REMARK   80  A    between atoms: _194  and  _195
REMARK   81  A    between atoms: _194  and  _197
REMARK   82  A    between atoms: _199  and  _201
REMARK   83  A    between atoms: _201  and  _202
REMARK   84  A    between atoms: _204  and  _206
REMARK   85  A    between atoms: _206  and  _207
REMARK   86  A    between atoms: _206  and  _209
REMARK   87  A    between atoms: _209  and  _210
REMARK   88  A    between atoms: _213  and  _215
REMARK   89  A    between atoms: _215  and  _216
REMARK   90  A    between atoms: _215  and  _218
REMARK   91  A    between atoms: _218  and  _219
REMARK   92  A    between atoms: _222  and  _224
REMARK   93  A    between atoms: _224  and  _225
REMARK   94  A    between atoms: _224  and  _227
REMARK   95  A    between atoms: _227  and  _228
REMARK   96  A    between atoms: _230  and  _232
REMARK   97  A    between atoms: _232  and  _233
REMARK   98  A    between atoms: _232  and  _235
REMARK   99  A    between atoms: _237  and  _239
REMARK  100  A    between atoms: _239  and  _240
REMARK  101  A    between atoms: _239  and  _242
REMARK  102  A    between atoms: _242  and  _243
REMARK  103  A    between atoms: _245  and  _247
REMARK  104  A    between atoms: _247  and  _248
REMARK  105  A    between atoms: _247  and  _250
REMARK  106  A    between atoms: _250  and  _251
REMARK  107  A    between atoms: _253  and  _255
REMARK  108  A    between atoms: _255  and  _256
REMARK  109  A    between atoms: _255  and  _258
REMARK  110  A    between atoms: _258  and  _259
REMARK  111  A    between atoms: _264  and  _266
REMARK  112  A    between atoms: _266  and  _267
REMARK  113  A    between atoms: _266  and  _269
REMARK  114  A    between atoms: _269  and  _270
REMARK  115  A    between atoms: _275  and  _276
REMARK  116  A    between atoms: _278  and  _280
REMARK  117  A    between atoms: _280  and  _281
REMARK  118  A    between atoms: _280  and  _283
REMARK  119  A    between atoms: _283  and  _284
REMARK  120  A    between atoms: _287  and  _289
REMARK  121  A    between atoms: _289  and  _290
REMARK  122  A    between atoms: _289  and  _292
REMARK  123  A    between atoms: _292  and  _293
REMARK  124  A    between atoms: _296  and  _298
REMARK  125  A    between atoms: _298  and  _299
REMARK  126  A    between atoms: _298  and  _301
REMARK  127  A    between atoms: _301  and  _302
REMARK  128  A    between atoms: _302  and  _303
REMARK  129  A    between atoms: _303  and  _304
REMARK  130  A    between atoms: _313  and  _315
REMARK  131  A    between atoms: _315  and  _316
REMARK  132  A    between atoms: _315  and  _318
REMARK  133  A    between atoms: _318  and  _319
REMARK  134  A    between atoms: _323  and  _324
REMARK  135  A    between atoms: _329  and  _331
REMARK  136  A    between atoms: _331  and  _332
REMARK  137  A    between atoms: _331  and  _334
REMARK  138  A    between atoms: _334  and  _335
REMARK  139  A    between atoms: _335  and  _336
REMARK  140  A    between atoms: _336  and  _337
REMARK  141  A    between atoms: _346  and  _348
REMARK  142  A    between atoms: _348  and  _349
REMARK  143  A    between atoms: _348  and  _351
REMARK  144  A    between atoms: _351  and  _352
REMARK  145  A    between atoms: _352  and  _353
REMARK  146  A    between atoms: _356  and  _358
REMARK  147  A    between atoms: _358  and  _359
REMARK  148  A    between atoms: _358  and  _361
REMARK  149  A    between atoms: _364  and  _366
REMARK  150  A    between atoms: _366  and  _367
REMARK  151  A    between atoms: _366  and  _369
REMARK  152  A    between atoms: _369  and  _370
REMARK  153  A    between atoms: _375  and  _377
REMARK  154  A    between atoms: _377  and  _378
REMARK  155  A    between atoms: _377  and  _380
REMARK  156  A    between atoms: _380  and  _381
REMARK  157  A    between atoms: _383  and  _385
REMARK  158  A    between atoms: _385  and  _386
REMARK  159  A    between atoms: _385  and  _388
REMARK  160  A    between atoms: _388  and  _389
REMARK  161  A    between atoms: _399  and  _401
REMARK  162  A    between atoms: _401  and  _402
REMARK  163  A    between atoms: _401  and  _404
REMARK  164  A    between atoms: _404  and  _405
REMARK  165  A    between atoms: _408  and  _410
REMARK  166  A    between atoms: _410  and  _411
REMARK  167  A    between atoms: _413  and  _415
REMARK  168  A    between atoms: _415  and  _416
REMARK  169  A    between atoms: _415  and  _418
REMARK  170  A    between atoms: _418  and  _419
REMARK  171  A    between atoms: _424  and  _426
REMARK  172  A    between atoms: _426  and  _427
REMARK  173  A    between atoms: _426  and  _429
REMARK  174  A    between atoms: _429  and  _430
REMARK  175  A    between atoms: _433  and  _435
REMARK  176  A    between atoms: _435  and  _436
REMARK  177  A    between atoms: _435  and  _438
REMARK  178  A    between atoms: _438  and  _439
REMARK  179  A    between atoms: _442  and  _444
REMARK  180  A    between atoms: _444  and  _445
REMARK  181  A    between atoms: _444  and  _447
REMARK  182  A    between atoms: _447  and  _448
REMARK  183  A    between atoms: _448  and  _449
REMARK  184  A    between atoms: _451  and  _453
REMARK  185  A    between atoms: _453  and  _454
REMARK  186  A    between atoms: _453  and  _456
REMARK  187  A    between atoms: _456  and  _457
REMARK  188  A    between atoms: _463  and  _465
REMARK  189  A    between atoms: _465  and  _466
REMARK  190  A    between atoms: _470  and  _471
REMARK  191  A    between atoms: _476  and  _478
REMARK  192  A    between atoms: _478  and  _479
REMARK  193  A    between atoms: _478  and  _481
REMARK  194  A    between atoms: _481  and  _482
REMARK  195  A    between atoms: _485  and  _487
REMARK  196  A    between atoms: _487  and  _488
REMARK  197  A    between atoms: _487  and  _490
REMARK  198  A    between atoms: _490  and  _491
REMARK  199  A    between atoms: _501  and  _503
REMARK  200  A    between atoms: _503  and  _504
REMARK  201  A    between atoms: _503  and  _506
REMARK  202  A    between atoms: _508  and  _510
REMARK  203  A    between atoms: _510  and  _511
REMARK  204  A    between atoms: _510  and  _513
REMARK  205  A    between atoms: _513  and  _514
REMARK  206  A    between atoms: _514  and  _515
REMARK  207  A    between atoms: _518  and  _520
REMARK  208  A    between atoms: _520  and  _521
REMARK  209  A    between atoms: _520  and  _523
REMARK  210  A    between atoms: _523  and  _524
REMARK  211  A    between atoms: _527  and  _529
REMARK  212  A    between atoms: _529  and  _530
REMARK  213  A    between atoms: _529  and  _532
REMARK  214  A    between atoms: _532  and  _533
REMARK  215  A    between atoms: _538  and  _539
REMARK  216  A    between atoms: _541  and  _543
REMARK  217  A    between atoms: _543  and  _544
REMARK  218  A    between atoms: _546  and  _548
REMARK  219  A    between atoms: _548  and  _549
REMARK  220  A    between atoms: _552  and  _554
REMARK  221  A    between atoms: _554  and  _555
REMARK  222  A    between atoms: _554  and  _557
REMARK  223  A    between atoms: _559  and  _561
REMARK  224  A    between atoms: _561  and  _562
REMARK  225  A    between atoms: _561  and  _564
REMARK  226  A    between atoms: _564  and  _565
REMARK  227  A    between atoms: _570  and  _571
REMARK  228  A    between atoms: _573  and  _575
REMARK  229  A    between atoms: _575  and  _576
REMARK  230  A    between atoms: _575  and  _578
REMARK  231  A    between atoms: _578  and  _579
REMARK  232  A    between atoms: _584  and  _586
REMARK  233  A    between atoms: _586  and  _587
REMARK  234  A    between atoms: _586  and  _589
REMARK  235  A    between atoms: _589  and  _590
REMARK  236  A    between atoms: _596  and  _598
REMARK  237  A    between atoms: _598  and  _599
REMARK  238  A    between atoms: _602  and  _604
REMARK  239  A    between atoms: _604  and  _605
REMARK  240  A    between atoms: _607  and  _609
REMARK  241  A    between atoms: _609  and  _610
REMARK  242  A    between atoms: _609  and  _612
REMARK  243  A    between atoms: _612  and  _613
REMARK  244  A    between atoms: _618  and  _619
REMARK  245  A    between atoms: _621  and  _623
REMARK  246  A    between atoms: _623  and  _624
REMARK  247  A    between atoms: _623  and  _626
REMARK  248  A    between atoms: _626  and  _627
REMARK  249  A    between atoms: _629  and  _631
REMARK  250  A    between atoms: _631  and  _632
REMARK  251  A    between atoms: _634  and  _636
REMARK  252  A    between atoms: _636  and  _637
REMARK                            x       y       z     vdW  Elec       q    Type
REMARK                         _______ _______ _______ _____ _____    ______ ____
ROOT
ATOM      1  C   GLY A   4      25.290  12.450 -20.111  0.00  0.00    +0.243 C 
ATOM      2  N   GLN A   5      25.111  11.811 -18.967  0.00  0.00    -0.297 N 
ATOM      3  H   GLN A   5      24.914  10.790 -18.973  0.00  0.00    +0.150 HD
ATOM      4  O   GLY A   4      25.496  13.655 -20.151  0.00  0.00    -0.273 OA
ENDROOT
BRANCH   2   5
ATOM      5  CA  GLN A   5      25.187  12.524 -17.695  0.00  0.00    +0.149 C 
BRANCH   5   6
ATOM      6  C   GLN A   5      26.612  12.923 -17.335  0.00  0.00    +0.241 C 
ATOM      7  O   GLN A   5      26.815  13.953 -16.694  0.00  0.00    -0.273 OA
ATOM      8  N   ARG A   6      27.582  12.106 -17.745  0.00  0.00    -0.297 N 
ATOM      9  H   ARG A   6      27.330  11.240 -18.262  0.00  0.00    +0.150 HD
BRANCH   8  10
ATOM     10  CA  ARG A   6      28.982  12.394 -17.489  0.00  0.00    +0.149 C 
BRANCH  10  11
ATOM     11  C   ARG A   6      29.427  13.625 -18.273  0.00  0.00    +0.241 C 
ATOM     12  O   ARG A   6      30.102  14.519 -17.751  0.00  0.00    -0.273 OA
ATOM     13  N   VAL A   7      29.047  13.679 -19.537  0.00  0.00    -0.298 N 
ATOM     14  H   VAL A   7      28.502  12.901 -19.961  0.00  0.00    +0.150 HD
BRANCH  13  15
ATOM     15  CA  VAL A   7      29.405  14.843 -20.320  0.00  0.00    +0.137 C 
BRANCH  15  16
ATOM     16  CB  VAL A   7      29.267  14.609 -21.846  0.00  0.00    +0.026 C 
ATOM     17  CG2 VAL A   7      27.830  14.588 -22.285  0.00  0.00    +0.002 C 
ATOM     18  CG1 VAL A   7      30.092  15.670 -22.595  0.00  0.00    +0.002 C 
ENDBRANCH  15  16
BRANCH  15  19
ATOM     19  C   VAL A   7      28.679  16.086 -19.786  0.00  0.00    +0.227 C 
ATOM     20  O   VAL A   7      29.260  17.158 -19.745  0.00  0.00    -0.286 OA
ENDBRANCH  15  19
ENDBRANCH  13  15
ENDBRANCH  10  11
BRANCH  10  21
ATOM     21  CB  ARG A   6      29.873  11.208 -17.859  0.00  0.00    +0.033 C 
BRANCH  21  22
ATOM     22  CG  ARG A   6      31.336  11.464 -17.452  0.00  0.00    +0.045 C 
BRANCH  22  23
ATOM     23  CD  ARG A   6      32.266  10.347 -17.938  0.00  0.00    +0.174 C 
BRANCH  23  24
ATOM     24  NE  ARG A   6      33.665  10.618 -17.619  0.00  0.00    -0.265 N 
ATOM     25  CZ  ARG A   6      34.272  10.213 -16.514  0.00  0.00    +0.342 C 
ATOM     26  NH2 ARG A   6      33.620   9.495 -15.602  0.00  0.00    -0.292 N 
ATOM     27 HH21 ARG A   6      34.109   9.183 -14.739  0.00  0.00    +0.255 HD
ATOM     28 HH22 ARG A   6      32.622   9.246 -15.753  0.00  0.00    +0.255 HD
ATOM     29  NH1 ARG A   6      35.540  10.520 -16.318  0.00  0.00    -0.292 N 
ATOM     30 HH11 ARG A   6      36.023  10.205 -15.453  0.00  0.00    +0.255 HD
ATOM     31 HH12 ARG A   6      36.056  11.077 -17.029  0.00  0.00    +0.255 HD
ATOM     32  HE  ARG A   6      34.222  11.166 -18.306  0.00  0.00    +0.259 HD
ENDBRANCH  23  24
ENDBRANCH  22  23
ENDBRANCH  21  22
ENDBRANCH  10  21
ENDBRANCH   8  10
ENDBRANCH   5   6
BRANCH   5  33
ATOM     33  CB  GLN A   5      24.570  11.701 -16.582  0.00  0.00    +0.039 C 
BRANCH  33  34
ATOM     34  CG  GLN A   5      23.092  11.474 -16.797  0.00  0.00    +0.087 C 
BRANCH  34  35
ATOM     35  CD  GLN A   5      22.511  10.481 -15.837  0.00  0.00    +0.219 C 
ATOM     36  NE2 GLN A   5      21.259  10.727 -15.430  0.00  0.00    -0.329 N 
ATOM     37 HE21 GLN A   5      20.788  10.074 -14.772  0.00  0.00    +0.145 HD
ATOM     38 HE22 GLN A   5      20.757  11.571 -15.772  0.00  0.00    +0.145 HD
ATOM     39  OE1 GLN A   5      23.161   9.490 -15.463  0.00  0.00    -0.275 OA
ENDBRANCH  34  35
ENDBRANCH  33  34
ENDBRANCH   5  33
ENDBRANCH   2   5
BRANCH   1  40
ATOM     40  CA  GLY A   4      25.220  11.609 -21.378  0.00  0.00    +0.176 C 
BRANCH  40  43
ATOM     41  C   PRO A   3      27.138  10.177 -20.894  0.00  0.00    +0.241 C 
ATOM     42  O   PRO A   3      27.877  11.165 -20.734  0.00  0.00    -0.273 OA
ATOM     43  N   GLY A   4      25.852  10.284 -21.215  0.00  0.00    -0.295 N 
ATOM     44  H   GLY A   4      25.284   9.424 -21.353  0.00  0.00    +0.150 HD
BRANCH  41  51
ATOM     45  C   SER A   2      26.417   8.382 -18.677  0.00  0.00    +0.246 C 
ATOM     46  O   SER A   2      26.888   9.406 -18.175  0.00  0.00    -0.273 OA
ATOM     47  N   PRO A   3      26.751   7.967 -19.905  0.00  0.00    -0.272 N 
ATOM     48  CD  PRO A   3      26.351   6.732 -20.599  0.00  0.00    +0.094 C 
ATOM     49  CG  PRO A   3      27.322   6.652 -21.729  0.00  0.00    +0.024 C 
ATOM     50  CB  PRO A   3      27.817   8.014 -21.998  0.00  0.00    +0.031 C 
ATOM     51  CA  PRO A   3      27.683   8.777 -20.682  0.00  0.00    +0.152 C 
BRANCH  45  52
ATOM     52  CA  SER A   2      25.415   7.527 -17.902  0.00  0.00    +0.178 C 
BRANCH  52  55
ATOM     53  C   TYR A   1      26.438   7.911 -15.736  0.00  0.00    +0.239 C 
ATOM     54  O   TYR A   1      27.377   7.164 -15.972  0.00  0.00    -0.274 OA
ATOM     55  N   SER A   2      25.388   8.042 -16.540  0.00  0.00    -0.295 N 
ATOM     56  H   SER A   2      24.533   8.520 -16.191  0.00  0.00    +0.150 HD
BRANCH  53  57
ATOM     57  CA  TYR A   1      26.427   8.752 -14.486  0.00  0.00    +0.149 C 
BRANCH  57  58
ATOM     58  N   TYR A   1      26.828   7.985 -13.306  0.00  0.00    -0.238 NA
ATOM     59  H   TYR A   1      27.820   7.684 -13.218  0.00  0.00    +0.142 HD
ENDBRANCH  57  58
BRANCH  57  60
ATOM     60  CB  TYR A   1      27.359   9.945 -14.708  0.00  0.00    +0.053 C 
BRANCH  60  61
ATOM     61  CG  TYR A   1      27.391  10.932 -13.558  0.00  0.00    -0.020 A 
ATOM     62  CD2 TYR A   1      28.578  11.196 -12.880  0.00  0.00    -0.001 A 
ATOM     63  CE2 TYR A   1      28.617  12.094 -11.813  0.00  0.00    +0.036 A 
ATOM     64  CZ  TYR A   1      27.469  12.747 -11.414  0.00  0.00    +0.134 A 
ATOM     65  CE1 TYR A   1      26.282  12.509 -12.074  0.00  0.00    +0.036 A 
ATOM     66  CD1 TYR A   1      26.243  11.601 -13.145  0.00  0.00    -0.001 A 
BRANCH  64  67
ATOM     67  OH  TYR A   1      27.539  13.622 -10.362  0.00  0.00    -0.506 OA
ATOM     68  HH  TYR A   1      27.847  13.141  -9.554  0.00  0.00    +0.292 HD
ENDBRANCH  64  67
ENDBRANCH  60  61
ENDBRANCH  57  60
ENDBRANCH  53  57
ENDBRANCH  52  55
BRANCH  52  69
ATOM     69  CB  SER A   2      24.030   7.653 -18.533  0.00  0.00    +0.166 C 
BRANCH  69  70
ATOM     70  OG  SER A   2      23.716   9.025 -18.748  0.00  0.00    -0.380 OA
ATOM     71  H   SER A   2      22.817   9.096 -19.157  0.00  0.00    +0.211 HD
ENDBRANCH  69  70
ENDBRANCH  52  69
ENDBRANCH  45  52
ENDBRANCH  41  51
ENDBRANCH  40  43
ENDBRANCH   1  40
TORSDOF 26
REMARK  Name = ../refined-set-2016/3hkw/3hkw_pocket.pdb
REMARK  252 active torsions:
REMARK  status: ('A' for Active; 'I' for Inactive)
REMARK    1  A    between atoms: _1  and  _3
REMARK    2  A    between atoms: _3  and  _4
REMARK    3  A    between atoms: _3  and  _6
REMARK    4  A    between atoms: _6  and  _7
REMARK    5  A    between atoms: _7  and  _8
REMARK    6  A    between atoms: _8  and  _9
REMARK    7  A    between atoms: _9  and  _10
REMARK    8  A    between atoms: _14  and  _16
REMARK    9  A    between atoms: _16  and  _17
REMARK   10  A    between atoms: _16  and  _19
REMARK   11  A    between atoms: _19  and  _20
REMARK   12  A    between atoms: _20  and  _21
REMARK   13  A    between atoms: _24  and  _26
REMARK   14  A    between atoms: _26  and  _27
REMARK   15  A    between atoms: _26  and  _29
REMARK   16  A    between atoms: _29  and  _30
REMARK   17  A    between atoms: _30  and  _31
REMARK   18  A    between atoms: _31  and  _32
REMARK   19  A    between atoms: _41  and  _43
REMARK   20  A    between atoms: _43  and  _44
REMARK   21  A    between atoms: _46  and  _48
REMARK   22  A    between atoms: _48  and  _49
REMARK   23  A    between atoms: _48  and  _51
REMARK   24  A    between atoms: _51  and  _52
REMARK   25  A    between atoms: _58  and  _60
REMARK   26  A    between atoms: _60  and  _61
REMARK   27  A    between atoms: _60  and  _63
REMARK   28  A    between atoms: _63  and  _64
REMARK   29  A    between atoms: _69  and  _70
REMARK   30  A    between atoms: _72  and  _74
REMARK   31  A    between atoms: _74  and  _75
REMARK   32  A    between atoms: _74  and  _77
REMARK   33  A    between atoms: _77  and  _78
REMARK   34  A    between atoms: _81  and  _82
REMARK   35  A    between atoms: _87  and  _89
REMARK   36  A    between atoms: _89  and  _90
REMARK   37  A    between atoms: _92  and  _94
REMARK   38  A    between atoms: _94  and  _95
REMARK   39  A    between atoms: _94  and  _97
REMARK   40  A    between atoms: _97  and  _98
REMARK   41  A    between atoms: _98  and  _99
REMARK   42  A    between atoms: _104  and  _106
REMARK   43  A    between atoms: _106  and  _107
REMARK   44  A    between atoms: _106  and  _109
REMARK   45  A    between atoms: _109  and  _110
REMARK   46  A    between atoms: _110  and  _111
REMARK   47  A    between atoms: _111  and  _112
REMARK   48  A    between atoms: _121  and  _123
REMARK   49  A    between atoms: _123  and  _124
REMARK   50  A    between atoms: _123  and  _126
REMARK   51  A    between atoms: _129  and  _131
REMARK   52  A    between atoms: _131  and  _132
REMARK   53  A    between atoms: _131  and  _134
REMARK   54  A    between atoms: _134  and  _135
REMARK   55  A    between atoms: _138  and  _140
REMARK   56  A    between atoms: _140  and  _141
REMARK   57  A    between atoms: _140  and  _143
REMARK   58  A    between atoms: _143  and  _144
REMARK   59  A    between atoms: _147  and  _149
REMARK   60  A    between atoms: _149  and  _150
REMARK   61  A    between atoms: _149  and  _152
REMARK   62  A    between atoms: _152  and  _153
REMARK   63  A    between atoms: _155  and  _157
REMARK   64  A    between atoms: _157  and  _158
REMARK   65  A    between atoms: _157  and  _160
REMARK   66  A    between atoms: _160  and  _161
REMARK   67  A    between atoms: _164  and  _166
REMARK   68  A    between atoms: _166  and  _167
REMARK   69  A    between atoms: _166  and  _169
REMARK   70  A    between atoms: _169  and  _170
REMARK   71  A    between atoms: _172  and  _174
REMARK   72  A    between atoms: _174  and  _175
REMARK   73  A    between atoms: _174  and  _177
REMARK   74  A    between atoms: _177  and  _178
REMARK   75  A    between atoms: _183  and  _185
REMARK   76  A    between atoms: _185  and  _186
REMARK   77  A    between atoms: _185  and  _188
REMARK   78  A    between atoms: _188  and  _189
REMARK   79  A    between atoms: _192  and  _194
REMARK   80  A    between atoms: _194  and  _195
REMARK   81  A    between atoms: _194  and  _197
REMARK   82  A    between atoms: _199  and  _201
REMARK   83  A    between atoms: _201  and  _202
REMARK   84  A    between atoms: _204  and  _206
REMARK   85  A    between atoms: _206  and  _207
REMARK   86  A    between atoms: _206  and  _209
REMARK   87  A    between atoms: _209  and  _210
REMARK   88  A    between atoms: _213  and  _215
REMARK   89  A    between atoms: _215  and  _216
REMARK   90  A    between atoms: _215  and  _218
REMARK   91  A    between atoms: _218  and  _219
REMARK   92  A    between atoms: _222  and  _224
REMARK   93  A    between atoms: _224  and  _225
REMARK   94  A    between atoms: _224  and  _227
REMARK   95  A    between atoms: _227  and  _228
REMARK   96  A    between atoms: _230  and  _232
REMARK   97  A    between atoms: _232  and  _233
REMARK   98  A    between atoms: _232  and  _235
REMARK   99  A    between atoms: _237  and  _239
REMARK  100  A    between atoms: _239  and  _240
REMARK  101  A    between atoms: _239  and  _242
REMARK  102  A    between atoms: _242  and  _243
REMARK  103  A    between atoms: _245  and  _247
REMARK  104  A    between atoms: _247  and  _248
REMARK  105  A    between atoms: _247  and  _250
REMARK  106  A    between atoms: _250  and  _251
REMARK  107  A    between atoms: _253  and  _255
REMARK  108  A    between atoms: _255  and  _256
REMARK  109  A    between atoms: _255  and  _258
REMARK  110  A    between atoms: _258  and  _259
REMARK  111  A    between atoms: _264  and  _266
REMARK  112  A    between atoms: _266  and  _267
REMARK  113  A    between atoms: _266  and  _269
REMARK  114  A    between atoms: _269  and  _270
REMARK  115  A    between atoms: _275  and  _276
REMARK  116  A    between atoms: _278  and  _280
REMARK  117  A    between atoms: _280  and  _281
REMARK  118  A    between atoms: _280  and  _283
REMARK  119  A    between atoms: _283  and  _284
REMARK  120  A    between atoms: _287  and  _289
REMARK  121  A    between atoms: _289  and  _290
REMARK  122  A    between atoms: _289  and  _292
REMARK  123  A    between atoms: _292  and  _293
REMARK  124  A    between atoms: _296  and  _298
REMARK  125  A    between atoms: _298  and  _299
REMARK  126  A    between atoms: _298  and  _301
REMARK  127  A    between atoms: _301  and  _302
REMARK  128  A    between atoms: _302  and  _303
REMARK  129  A    between atoms: _303  and  _304
REMARK  130  A    between atoms: _313  and  _315
REMARK  131  A    between atoms: _315  and  _316
REMARK  132  A    between atoms: _315  and  _318
REMARK  133  A    between atoms: _318  and  _319
REMARK  134  A    between atoms: _323  and  _324
REMARK  135  A    between atoms: _329  and  _331
REMARK  136  A    between atoms: _331  and  _332
REMARK  137  A    between atoms: _331  and  _334
REMARK  138  A    between atoms: _334  and  _335
REMARK  139  A    between atoms: _335  and  _336
REMARK  140  A    between atoms: _336  and  _337
REMARK  141  A    between atoms: _346  and  _348
REMARK  142  A    between atoms: _348  and  _349
REMARK  143  A    between atoms: _348  and  _351
REMARK  144  A    between atoms: _351  and  _352
REMARK  145  A    between atoms: _352  and  _353
REMARK  146  A    between atoms: _356  and  _358
REMARK  147  A    between atoms: _358  and  _359
REMARK  148  A    between atoms: _358  and  _361
REMARK  149  A    between atoms: _364  and  _366
REMARK  150  A    between atoms: _366  and  _367
REMARK  151  A    between atoms: _366  and  _369
REMARK  152  A    between atoms: _369  and  _370
REMARK  153  A    between atoms: _375  and  _377
REMARK  154  A    between atoms: _377  and  _378
REMARK  155  A    between atoms: _377  and  _380
REMARK  156  A    between atoms: _380  and  _381
REMARK  157  A    between atoms: _383  and  _385
REMARK  158  A    between atoms: _385  and  _386
REMARK  159  A    between atoms: _385  and  _388
REMARK  160  A    between atoms: _388  and  _389
REMARK  161  A    between atoms: _399  and  _401
REMARK  162  A    between atoms: _401  and  _402
REMARK  163  A    between atoms: _401  and  _404
REMARK  164  A    between atoms: _404  and  _405
REMARK  165  A    between atoms: _408  and  _410
REMARK  166  A    between atoms: _410  and  _411
REMARK  167  A    between atoms: _413  and  _415
REMARK  168  A    between atoms: _415  and  _416
REMARK  169  A    between atoms: _415  and  _418
REMARK  170  A    between atoms: _418  and  _419
REMARK  171  A    between atoms: _424  and  _426
REMARK  172  A    between atoms: _426  and  _427
REMARK  173  A    between atoms: _426  and  _429
REMARK  174  A    between atoms: _429  and  _430
REMARK  175  A    between atoms: _433  and  _435
REMARK  176  A    between atoms: _435  and  _436
REMARK  177  A    between atoms: _435  and  _438
REMARK  178  A    between atoms: _438  and  _439
REMARK  179  A    between atoms: _442  and  _444
REMARK  180  A    between atoms: _444  and  _445
REMARK  181  A    between atoms: _444  and  _447
REMARK  182  A    between atoms: _447  and  _448
REMARK  183  A    between atoms: _448  and  _449
REMARK  184  A    between atoms: _451  and  _453
REMARK  185  A    between atoms: _453  and  _454
REMARK  186  A    between atoms: _453  and  _456
REMARK  187  A    between atoms: _456  and  _457
REMARK  188  A    between atoms: _463  and  _465
REMARK  189  A    between atoms: _465  and  _466
REMARK  190  A    between atoms: _470  and  _471
REMARK  191  A    between atoms: _476  and  _478
REMARK  192  A    between atoms: _478  and  _479
REMARK  193  A    between atoms: _478  and  _481
REMARK  194  A    between atoms: _481  and  _482
REMARK  195  A    between atoms: _485  and  _487
REMARK  196  A    between atoms: _487  and  _488
REMARK  197  A    between atoms: _487  and  _490
REMARK  198  A    between atoms: _490  and  _491
REMARK  199  A    between atoms: _501  and  _503
REMARK  200  A    between atoms: _503  and  _504
REMARK  201  A    between atoms: _503  and  _506
REMARK  202  A    between atoms: _508  and  _510
REMARK  203  A    between atoms: _510  and  _511
REMARK  204  A    between atoms: _510  and  _513
REMARK  205  A    between atoms: _513  and  _514
REMARK  206  A    between atoms: _514  and  _515
REMARK  207  A    between atoms: _518  and  _520
REMARK  208  A    between atoms: _520  and  _521
REMARK  209  A    between atoms: _520  and  _523
REMARK  210  A    between atoms: _523  and  _524
REMARK  211  A    between atoms: _527  and  _529
REMARK  212  A    between atoms: _529  and  _530
REMARK  213  A    between atoms: _529  and  _532
REMARK  214  A    between atoms: _532  and  _533
REMARK  215  A    between atoms: _538  and  _539
REMARK  216  A    between atoms: _541  and  _543
REMARK  217  A    between atoms: _543  and  _544
REMARK  218  A    between atoms: _546  and  _548
REMARK  219  A    between atoms: _548  and  _549
REMARK  220  A    between atoms: _552  and  _554
REMARK  221  A    between atoms: _554  and  _555
REMARK  222  A    between atoms: _554  and  _557
REMARK  223  A    between atoms: _559  and  _561
REMARK  224  A    between atoms: _561  and  _562
REMARK  225  A    between atoms: _561  and  _564
REMARK  226  A    between atoms: _564  and  _565
REMARK  227  A    between atoms: _570  and  _571
REMARK  228  A    between atoms: _573  and  _575
REMARK  229  A    between atoms: _575  and  _576
REMARK  230  A    between atoms: _575  and  _578
REMARK  231  A    between atoms: _578  and  _579
REMARK  232  A    between atoms: _584  and  _586
REMARK  233  A    between atoms: _586  and  _587
REMARK  234  A    between atoms: _586  and  _589
REMARK  235  A    between atoms: _589  and  _590
REMARK  236  A    between atoms: _596  and  _598
REMARK  237  A    between atoms: _598  and  _599
REMARK  238  A    between atoms: _602  and  _604
REMARK  239  A    between atoms: _604  and  _605
REMARK  240  A    between atoms: _607  and  _609
REMARK  241  A    between atoms: _609  and  _610
REMARK  242  A    between atoms: _609  and  _612
REMARK  243  A    between atoms: _612  and  _613
REMARK  244  A    between atoms: _618  and  _619
REMARK  245  A    between atoms: _621  and  _623
REMARK  246  A    between atoms: _623  and  _624
REMARK  247  A    between atoms: _623  and  _626
REMARK  248  A    between atoms: _626  and  _627
REMARK  249  A    between atoms: _629  and  _631
REMARK  250  A    between atoms: _631  and  _632
REMARK  251  A    between atoms: _634  and  _636
REMARK  252  A    between atoms: _636  and  _637
REMARK                            x       y       z     vdW  Elec       q    Type
REMARK                         _______ _______ _______ _____ _____    ______ ____
ROOT
ATOM      1  CA  LEU A   1      31.967  17.915 -17.019  0.00  0.00    +0.133 C 
ENDROOT
BRANCH   1   2
ATOM      2  N   LEU A   1      30.688  17.282 -16.703  0.00  0.00    -0.239 NA
ATOM      3  H   LEU A   1      30.383  16.443 -17.237  0.00  0.00    +0.142 HD
ENDBRANCH   1   2
BRANCH   1   4
ATOM      4  C   LEU A   1      31.765  19.293 -17.619  0.00  0.00    +0.224 C 
ATOM      5  O   LEU A   1      32.488  20.246 -17.294  0.00  0.00    -0.287 OA
ENDBRANCH   1   4
BRANCH   1   6
ATOM      6  CB  LEU A   1      32.791  17.052 -17.962  0.00  0.00    +0.025 C 
BRANCH   6   7
ATOM      7  CG  LEU A   1      33.333  15.756 -17.355  0.00  0.00    +0.002 C 
ATOM      8  CD2 LEU A   1      34.428  16.053 -16.345  0.00  0.00    +0.000 C 
ATOM      9  CD1 LEU A   1      33.831  14.827 -18.437  0.00  0.00    +0.000 C 
ENDBRANCH   6   7
ENDBRANCH   1   6
TORSDOF 4
REMARK  Name = ../refined-set-2016/3hkw/3hkw_pocket.pdb
REMARK  252 active torsions:
REMARK  status: ('A' for Active; 'I' for Inactive)
REMARK    1  A    between atoms: _1  and  _3
REMARK    2  A    between atoms: _3  and  _4
REMARK    3  A    between atoms: _3  and  _6
REMARK    4  A    between atoms: _6  and  _7
REMARK    5  A    between atoms: _7  and  _8
REMARK    6  A    between atoms: _8  and  _9
REMARK    7  A    between atoms: _9  and  _10
REMARK    8  A    between atoms: _14  and  _16
REMARK    9  A    between atoms: _16  and  _17
REMARK   10  A    between atoms: _16  and  _19
REMARK   11  A    between atoms: _19  and  _20
REMARK   12  A    between atoms: _20  and  _21
REMARK   13  A    between atoms: _24  and  _26
REMARK   14  A    between atoms: _26  and  _27
REMARK   15  A    between atoms: _26  and  _29
REMARK   16  A    between atoms: _29  and  _30
REMARK   17  A    between atoms: _30  and  _31
REMARK   18  A    between atoms: _31  and  _32
REMARK   19  A    between atoms: _41  and  _43
REMARK   20  A    between atoms: _43  and  _44
REMARK   21  A    between atoms: _46  and  _48
REMARK   22  A    between atoms: _48  and  _49
REMARK   23  A    between atoms: _48  and  _51
REMARK   24  A    between atoms: _51  and  _52
REMARK   25  A    between atoms: _58  and  _60
REMARK   26  A    between atoms: _60  and  _61
REMARK   27  A    between atoms: _60  and  _63
REMARK   28  A    between atoms: _63  and  _64
REMARK   29  A    between atoms: _69  and  _70
REMARK   30  A    between atoms: _72  and  _74
REMARK   31  A    between atoms: _74  and  _75
REMARK   32  A    between atoms: _74  and  _77
REMARK   33  A    between atoms: _77  and  _78
REMARK   34  A    between atoms: _81  and  _82
REMARK   35  A    between atoms: _87  and  _89
REMARK   36  A    between atoms: _89  and  _90
REMARK   37  A    between atoms: _92  and  _94
REMARK   38  A    between atoms: _94  and  _95
REMARK   39  A    between atoms: _94  and  _97
REMARK   40  A    between atoms: _97  and  _98
REMARK   41  A    between atoms: _98  and  _99
REMARK   42  A    between atoms: _104  and  _106
REMARK   43  A    between atoms: _106  and  _107
REMARK   44  A    between atoms: _106  and  _109
REMARK   45  A    between atoms: _109  and  _110
REMARK   46  A    between atoms: _110  and  _111
REMARK   47  A    between atoms: _111  and  _112
REMARK   48  A    between atoms: _121  and  _123
REMARK   49  A    between atoms: _123  and  _124
REMARK   50  A    between atoms: _123  and  _126
REMARK   51  A    between atoms: _129  and  _131
REMARK   52  A    between atoms: _131  and  _132
REMARK   53  A    between atoms: _131  and  _134
REMARK   54  A    between atoms: _134  and  _135
REMARK   55  A    between atoms: _138  and  _140
REMARK   56  A    between atoms: _140  and  _141
REMARK   57  A    between atoms: _140  and  _143
REMARK   58  A    between atoms: _143  and  _144
REMARK   59  A    between atoms: _147  and  _149
REMARK   60  A    between atoms: _149  and  _150
REMARK   61  A    between atoms: _149  and  _152
REMARK   62  A    between atoms: _152  and  _153
REMARK   63  A    between atoms: _155  and  _157
REMARK   64  A    between atoms: _157  and  _158
REMARK   65  A    between atoms: _157  and  _160
REMARK   66  A    between atoms: _160  and  _161
REMARK   67  A    between atoms: _164  and  _166
REMARK   68  A    between atoms: _166  and  _167
REMARK   69  A    between atoms: _166  and  _169
REMARK   70  A    between atoms: _169  and  _170
REMARK   71  A    between atoms: _172  and  _174
REMARK   72  A    between atoms: _174  and  _175
REMARK   73  A    between atoms: _174  and  _177
REMARK   74  A    between atoms: _177  and  _178
REMARK   75  A    between atoms: _183  and  _185
REMARK   76  A    between atoms: _185  and  _186
REMARK   77  A    between atoms: _185  and  _188
REMARK   78  A    between atoms: _188  and  _189
REMARK   79  A    between atoms: _192  and  _194
REMARK   80  A    between atoms: _194  and  _195
REMARK   81  A    between atoms: _194  and  _197
REMARK   82  A    between atoms: _199  and  _201
REMARK   83  A    between atoms: _201  and  _202
REMARK   84  A    between atoms: _204  and  _206
REMARK   85  A    between atoms: _206  and  _207
REMARK   86  A    between atoms: _206  and  _209
REMARK   87  A    between atoms: _209  and  _210
REMARK   88  A    between atoms: _213  and  _215
REMARK   89  A    between atoms: _215  and  _216
REMARK   90  A    between atoms: _215  and  _218
REMARK   91  A    between atoms: _218  and  _219
REMARK   92  A    between atoms: _222  and  _224
REMARK   93  A    between atoms: _224  and  _225
REMARK   94  A    between atoms: _224  and  _227
REMARK   95  A    between atoms: _227  and  _228
REMARK   96  A    between atoms: _230  and  _232
REMARK   97  A    between atoms: _232  and  _233
REMARK   98  A    between atoms: _232  and  _235
REMARK   99  A    between atoms: _237  and  _239
REMARK  100  A    between atoms: _239  and  _240
REMARK  101  A    between atoms: _239  and  _242
REMARK  102  A    between atoms: _242  and  _243
REMARK  103  A    between atoms: _245  and  _247
REMARK  104  A    between atoms: _247  and  _248
REMARK  105  A    between atoms: _247  and  _250
REMARK  106  A    between atoms: _250  and  _251
REMARK  107  A    between atoms: _253  and  _255
REMARK  108  A    between atoms: _255  and  _256
REMARK  109  A    between atoms: _255  and  _258
REMARK  110  A    between atoms: _258  and  _259
REMARK  111  A    between atoms: _264  and  _266
REMARK  112  A    between atoms: _266  and  _267
REMARK  113  A    between atoms: _266  and  _269
REMARK  114  A    between atoms: _269  and  _270
REMARK  115  A    between atoms: _275  and  _276
REMARK  116  A    between atoms: _278  and  _280
REMARK  117  A    between atoms: _280  and  _281
REMARK  118  A    between atoms: _280  and  _283
REMARK  119  A    between atoms: _283  and  _284
REMARK  120  A    between atoms: _287  and  _289
REMARK  121  A    between atoms: _289  and  _290
REMARK  122  A    between atoms: _289  and  _292
REMARK  123  A    between atoms: _292  and  _293
REMARK  124  A    between atoms: _296  and  _298
REMARK  125  A    between atoms: _298  and  _299
REMARK  126  A    between atoms: _298  and  _301
REMARK  127  A    between atoms: _301  and  _302
REMARK  128  A    between atoms: _302  and  _303
REMARK  129  A    between atoms: _303  and  _304
REMARK  130  A    between atoms: _313  and  _315
REMARK  131  A    between atoms: _315  and  _316
REMARK  132  A    between atoms: _315  and  _318
REMARK  133  A    between atoms: _318  and  _319
REMARK  134  A    between atoms: _323  and  _324
REMARK  135  A    between atoms: _329  and  _331
REMARK  136  A    between atoms: _331  and  _332
REMARK  137  A    between atoms: _331  and  _334
REMARK  138  A    between atoms: _334  and  _335
REMARK  139  A    between atoms: _335  and  _336
REMARK  140  A    between atoms: _336  and  _337
REMARK  141  A    between atoms: _346  and  _348
REMARK  142  A    between atoms: _348  and  _349
REMARK  143  A    between atoms: _348  and  _351
REMARK  144  A    between atoms: _351  and  _352
REMARK  145  A    between atoms: _352  and  _353
REMARK  146  A    between atoms: _356  and  _358
REMARK  147  A    between atoms: _358  and  _359
REMARK  148  A    between atoms: _358  and  _361
REMARK  149  A    between atoms: _364  and  _366
REMARK  150  A    between atoms: _366  and  _367
REMARK  151  A    between atoms: _366  and  _369
REMARK  152  A    between atoms: _369  and  _370
REMARK  153  A    between atoms: _375  and  _377
REMARK  154  A    between atoms: _377  and  _378
REMARK  155  A    between atoms: _377  and  _380
REMARK  156  A    between atoms: _380  and  _381
REMARK  157  A    between atoms: _383  and  _385
REMARK  158  A    between atoms: _385  and  _386
REMARK  159  A    between atoms: _385  and  _388
REMARK  160  A    between atoms: _388  and  _389
REMARK  161  A    between atoms: _399  and  _401
REMARK  162  A    between atoms: _401  and  _402
REMARK  163  A    between atoms: _401  and  _404
REMARK  164  A    between atoms: _404  and  _405
REMARK  165  A    between atoms: _408  and  _410
REMARK  166  A    between atoms: _410  and  _411
REMARK  167  A    between atoms: _413  and  _415
REMARK  168  A    between atoms: _415  and  _416
REMARK  169  A    between atoms: _415  and  _418
REMARK  170  A    between atoms: _418  and  _419
REMARK  171  A    between atoms: _424  and  _426
REMARK  172  A    between atoms: _426  and  _427
REMARK  173  A    between atoms: _426  and  _429
REMARK  174  A    between atoms: _429  and  _430
REMARK  175  A    between atoms: _433  and  _435
REMARK  176  A    between atoms: _435  and  _436
REMARK  177  A    between atoms: _435  and  _438
REMARK  178  A    between atoms: _438  and  _439
REMARK  179  A    between atoms: _442  and  _444
REMARK  180  A    between atoms: _444  and  _445
REMARK  181  A    between atoms: _444  and  _447
REMARK  182  A    between atoms: _447  and  _448
REMARK  183  A    between atoms: _448  and  _449
REMARK  184  A    between atoms: _451  and  _453
REMARK  185  A    between atoms: _453  and  _454
REMARK  186  A    between atoms: _453  and  _456
REMARK  187  A    between atoms: _456  and  _457
REMARK  188  A    between atoms: _463  and  _465
REMARK  189  A    between atoms: _465  and  _466
REMARK  190  A    between atoms: _470  and  _471
REMARK  191  A    between atoms: _476  and  _478
REMARK  192  A    between atoms: _478  and  _479
REMARK  193  A    between atoms: _478  and  _481
REMARK  194  A    between atoms: _481  and  _482
REMARK  195  A    between atoms: _485  and  _487
REMARK  196  A    between atoms: _487  and  _488
REMARK  197  A    between atoms: _487  and  _490
REMARK  198  A    between atoms: _490  and  _491
REMARK  199  A    between atoms: _501  and  _503
REMARK  200  A    between atoms: _503  and  _504
REMARK  201  A    between atoms: _503  and  _506
REMARK  202  A    between atoms: _508  and  _510
REMARK  203  A    between atoms: _510  and  _511
REMARK  204  A    between atoms: _510  and  _513
REMARK  205  A    between atoms: _513  and  _514
REMARK  206  A    between atoms: _514  and  _515
REMARK  207  A    between atoms: _518  and  _520
REMARK  208  A    between atoms: _520  and  _521
REMARK  209  A    between atoms: _520  and  _523
REMARK  210  A    between atoms: _523  and  _524
REMARK  211  A    between atoms: _527  and  _529
REMARK  212  A    between atoms: _529  and  _530
REMARK  213  A    between atoms: _529  and  _532
REMARK  214  A    between atoms: _532  and  _533
REMARK  215  A    between atoms: _538  and  _539
REMARK  216  A    between atoms: _541  and  _543
REMARK  217  A    between atoms: _543  and  _544
REMARK  218  A    between atoms: _546  and  _548
REMARK  219  A    between atoms: _548  and  _549
REMARK  220  A    between atoms: _552  and  _554
REMARK  221  A    between atoms: _554  and  _555
REMARK  222  A    between atoms: _554  and  _557
REMARK  223  A    between atoms: _559  and  _561
REMARK  224  A    between atoms: _561  and  _562
REMARK  225  A    between atoms: _561  and  _564
REMARK  226  A    between atoms: _564  and  _565
REMARK  227  A    between atoms: _570  and  _571
REMARK  228  A    between atoms: _573  and  _575
REMARK  229  A    between atoms: _575  and  _576
REMARK  230  A    between atoms: _575  and  _578
REMARK  231  A    between atoms: _578  and  _579
REMARK  232  A    between atoms: _584  and  _586
REMARK  233  A    between atoms: _586  and  _587
REMARK  234  A    between atoms: _586  and  _589
REMARK  235  A    between atoms: _589  and  _590
REMARK  236  A    between atoms: _596  and  _598
REMARK  237  A    between atoms: _598  and  _599
REMARK  238  A    between atoms: _602  and  _604
REMARK  239  A    between atoms: _604  and  _605
REMARK  240  A    between atoms: _607  and  _609
REMARK  241  A    between atoms: _609  and  _610
REMARK  242  A    between atoms: _609  and  _612
REMARK  243  A    between atoms: _612  and  _613
REMARK  244  A    between atoms: _618  and  _619
REMARK  245  A    between atoms: _621  and  _623
REMARK  246  A    between atoms: _623  and  _624
REMARK  247  A    between atoms: _623  and  _626
REMARK  248  A    between atoms: _626  and  _627
REMARK  249  A    between atoms: _629  and  _631
REMARK  250  A    between atoms: _631  and  _632
REMARK  251  A    between atoms: _634  and  _636
REMARK  252  A    between atoms: _636  and  _637
REMARK                            x       y       z     vdW  Elec       q    Type
REMARK                         _______ _______ _______ _____ _____    ______ ____
ROOT
ATOM      1  CA  ASP A   1      46.969  -0.618  -7.310  0.00  0.00    +0.144 C 
ENDROOT
BRANCH   1   2
ATOM      2  N   ASP A   1      47.163   0.546  -8.171  0.00  0.00    -0.239 NA
ATOM      3  H   ASP A   1      47.039   0.454  -9.199  0.00  0.00    +0.142 HD
ENDBRANCH   1   2
BRANCH   1   4
ATOM      4  C   ASP A   1      48.166  -0.872  -6.396  0.00  0.00    +0.225 C 
ATOM      5  O   ASP A   1      47.977  -1.233  -5.242  0.00  0.00    -0.287 OA
ENDBRANCH   1   4
BRANCH   1   6
ATOM      6  CB  ASP A   1      46.672  -1.876  -8.118  0.00  0.00    +0.139 C 
BRANCH   6   7
ATOM      7  CG  ASP A   1      45.268  -1.895  -8.680  0.00  0.00    +0.367 C 
ATOM      8  OD2 ASP A   1      44.503  -0.962  -8.393  0.00  0.00    -0.246 OA
ATOM      9  OD1 ASP A   1      44.935  -2.842  -9.433  0.00  0.00    -0.246 OA
ENDBRANCH   6   7
ENDBRANCH   1   6
TORSDOF 4
REMARK  Name = ../refined-set-2016/3hkw/3hkw_pocket.pdb
REMARK  252 active torsions:
REMARK  status: ('A' for Active; 'I' for Inactive)
REMARK    1  A    between atoms: _1  and  _3
REMARK    2  A    between atoms: _3  and  _4
REMARK    3  A    between atoms: _3  and  _6
REMARK    4  A    between atoms: _6  and  _7
REMARK    5  A    between atoms: _7  and  _8
REMARK    6  A    between atoms: _8  and  _9
REMARK    7  A    between atoms: _9  and  _10
REMARK    8  A    between atoms: _14  and  _16
REMARK    9  A    between atoms: _16  and  _17
REMARK   10  A    between atoms: _16  and  _19
REMARK   11  A    between atoms: _19  and  _20
REMARK   12  A    between atoms: _20  and  _21
REMARK   13  A    between atoms: _24  and  _26
REMARK   14  A    between atoms: _26  and  _27
REMARK   15  A    between atoms: _26  and  _29
REMARK   16  A    between atoms: _29  and  _30
REMARK   17  A    between atoms: _30  and  _31
REMARK   18  A    between atoms: _31  and  _32
REMARK   19  A    between atoms: _41  and  _43
REMARK   20  A    between atoms: _43  and  _44
REMARK   21  A    between atoms: _46  and  _48
REMARK   22  A    between atoms: _48  and  _49
REMARK   23  A    between atoms: _48  and  _51
REMARK   24  A    between atoms: _51  and  _52
REMARK   25  A    between atoms: _58  and  _60
REMARK   26  A    between atoms: _60  and  _61
REMARK   27  A    between atoms: _60  and  _63
REMARK   28  A    between atoms: _63  and  _64
REMARK   29  A    between atoms: _69  and  _70
REMARK   30  A    between atoms: _72  and  _74
REMARK   31  A    between atoms: _74  and  _75
REMARK   32  A    between atoms: _74  and  _77
REMARK   33  A    between atoms: _77  and  _78
REMARK   34  A    between atoms: _81  and  _82
REMARK   35  A    between atoms: _87  and  _89
REMARK   36  A    between atoms: _89  and  _90
REMARK   37  A    between atoms: _92  and  _94
REMARK   38  A    between atoms: _94  and  _95
REMARK   39  A    between atoms: _94  and  _97
REMARK   40  A    between atoms: _97  and  _98
REMARK   41  A    between atoms: _98  and  _99
REMARK   42  A    between atoms: _104  and  _106
REMARK   43  A    between atoms: _106  and  _107
REMARK   44  A    between atoms: _106  and  _109
REMARK   45  A    between atoms: _109  and  _110
REMARK   46  A    between atoms: _110  and  _111
REMARK   47  A    between atoms: _111  and  _112
REMARK   48  A    between atoms: _121  and  _123
REMARK   49  A    between atoms: _123  and  _124
REMARK   50  A    between atoms: _123  and  _126
REMARK   51  A    between atoms: _129  and  _131
REMARK   52  A    between atoms: _131  and  _132
REMARK   53  A    between atoms: _131  and  _134
REMARK   54  A    between atoms: _134  and  _135
REMARK   55  A    between atoms: _138  and  _140
REMARK   56  A    between atoms: _140  and  _141
REMARK   57  A    between atoms: _140  and  _143
REMARK   58  A    between atoms: _143  and  _144
REMARK   59  A    between atoms: _147  and  _149
REMARK   60  A    between atoms: _149  and  _150
REMARK   61  A    between atoms: _149  and  _152
REMARK   62  A    between atoms: _152  and  _153
REMARK   63  A    between atoms: _155  and  _157
REMARK   64  A    between atoms: _157  and  _158
REMARK   65  A    between atoms: _157  and  _160
REMARK   66  A    between atoms: _160  and  _161
REMARK   67  A    between atoms: _164  and  _166
REMARK   68  A    between atoms: _166  and  _167
REMARK   69  A    between atoms: _166  and  _169
REMARK   70  A    between atoms: _169  and  _170
REMARK   71  A    between atoms: _172  and  _174
REMARK   72  A    between atoms: _174  and  _175
REMARK   73  A    between atoms: _174  and  _177
REMARK   74  A    between atoms: _177  and  _178
REMARK   75  A    between atoms: _183  and  _185
REMARK   76  A    between atoms: _185  and  _186
REMARK   77  A    between atoms: _185  and  _188
REMARK   78  A    between atoms: _188  and  _189
REMARK   79  A    between atoms: _192  and  _194
REMARK   80  A    between atoms: _194  and  _195
REMARK   81  A    between atoms: _194  and  _197
REMARK   82  A    between atoms: _199  and  _201
REMARK   83  A    between atoms: _201  and  _202
REMARK   84  A    between atoms: _204  and  _206
REMARK   85  A    between atoms: _206  and  _207
REMARK   86  A    between atoms: _206  and  _209
REMARK   87  A    between atoms: _209  and  _210
REMARK   88  A    between atoms: _213  and  _215
REMARK   89  A    between atoms: _215  and  _216
REMARK   90  A    between atoms: _215  and  _218
REMARK   91  A    between atoms: _218  and  _219
REMARK   92  A    between atoms: _222  and  _224
REMARK   93  A    between atoms: _224  and  _225
REMARK   94  A    between atoms: _224  and  _227
REMARK   95  A    between atoms: _227  and  _228
REMARK   96  A    between atoms: _230  and  _232
REMARK   97  A    between atoms: _232  and  _233
REMARK   98  A    between atoms: _232  and  _235
REMARK   99  A    between atoms: _237  and  _239
REMARK  100  A    between atoms: _239  and  _240
REMARK  101  A    between atoms: _239  and  _242
REMARK  102  A    between atoms: _242  and  _243
REMARK  103  A    between atoms: _245  and  _247
REMARK  104  A    between atoms: _247  and  _248
REMARK  105  A    between atoms: _247  and  _250
REMARK  106  A    between atoms: _250  and  _251
REMARK  107  A    between atoms: _253  and  _255
REMARK  108  A    between atoms: _255  and  _256
REMARK  109  A    between atoms: _255  and  _258
REMARK  110  A    between atoms: _258  and  _259
REMARK  111  A    between atoms: _264  and  _266
REMARK  112  A    between atoms: _266  and  _267
REMARK  113  A    between atoms: _266  and  _269
REMARK  114  A    between atoms: _269  and  _270
REMARK  115  A    between atoms: _275  and  _276
REMARK  116  A    between atoms: _278  and  _280
REMARK  117  A    between atoms: _280  and  _281
REMARK  118  A    between atoms: _280  and  _283
REMARK  119  A    between atoms: _283  and  _284
REMARK  120  A    between atoms: _287  and  _289
REMARK  121  A    between atoms: _289  and  _290
REMARK  122  A    between atoms: _289  and  _292
REMARK  123  A    between atoms: _292  and  _293
REMARK  124  A    between atoms: _296  and  _298
REMARK  125  A    between atoms: _298  and  _299
REMARK  126  A    between atoms: _298  and  _301
REMARK  127  A    between atoms: _301  and  _302
REMARK  128  A    between atoms: _302  and  _303
REMARK  129  A    between atoms: _303  and  _304
REMARK  130  A    between atoms: _313  and  _315
REMARK  131  A    between atoms: _315  and  _316
REMARK  132  A    between atoms: _315  and  _318
REMARK  133  A    between atoms: _318  and  _319
REMARK  134  A    between atoms: _323  and  _324
REMARK  135  A    between atoms: _329  and  _331
REMARK  136  A    between atoms: _331  and  _332
REMARK  137  A    between atoms: _331  and  _334
REMARK  138  A    between atoms: _334  and  _335
REMARK  139  A    between atoms: _335  and  _336
REMARK  140  A    between atoms: _336  and  _337
REMARK  141  A    between atoms: _346  and  _348
REMARK  142  A    between atoms: _348  and  _349
REMARK  143  A    between atoms: _348  and  _351
REMARK  144  A    between atoms: _351  and  _352
REMARK  145  A    between atoms: _352  and  _353
REMARK  146  A    between atoms: _356  and  _358
REMARK  147  A    between atoms: _358  and  _359
REMARK  148  A    between atoms: _358  and  _361
REMARK  149  A    between atoms: _364  and  _366
REMARK  150  A    between atoms: _366  and  _367
REMARK  151  A    between atoms: _366  and  _369
REMARK  152  A    between atoms: _369  and  _370
REMARK  153  A    between atoms: _375  and  _377
REMARK  154  A    between atoms: _377  and  _378
REMARK  155  A    between atoms: _377  and  _380
REMARK  156  A    between atoms: _380  and  _381
REMARK  157  A    between atoms: _383  and  _385
REMARK  158  A    between atoms: _385  and  _386
REMARK  159  A    between atoms: _385  and  _388
REMARK  160  A    between atoms: _388  and  _389
REMARK  161  A    between atoms: _399  and  _401
REMARK  162  A    between atoms: _401  and  _402
REMARK  163  A    between atoms: _401  and  _404
REMARK  164  A    between atoms: _404  and  _405
REMARK  165  A    between atoms: _408  and  _410
REMARK  166  A    between atoms: _410  and  _411
REMARK  167  A    between atoms: _413  and  _415
REMARK  168  A    between atoms: _415  and  _416
REMARK  169  A    between atoms: _415  and  _418
REMARK  170  A    between atoms: _418  and  _419
REMARK  171  A    between atoms: _424  and  _426
REMARK  172  A    between atoms: _426  and  _427
REMARK  173  A    between atoms: _426  and  _429
REMARK  174  A    between atoms: _429  and  _430
REMARK  175  A    between atoms: _433  and  _435
REMARK  176  A    between atoms: _435  and  _436
REMARK  177  A    between atoms: _435  and  _438
REMARK  178  A    between atoms: _438  and  _439
REMARK  179  A    between atoms: _442  and  _444
REMARK  180  A    between atoms: _444  and  _445
REMARK  181  A    between atoms: _444  and  _447
REMARK  182  A    between atoms: _447  and  _448
REMARK  183  A    between atoms: _448  and  _449
REMARK  184  A    between atoms: _451  and  _453
REMARK  185  A    between atoms: _453  and  _454
REMARK  186  A    between atoms: _453  and  _456
REMARK  187  A    between atoms: _456  and  _457
REMARK  188  A    between atoms: _463  and  _465
REMARK  189  A    between atoms: _465  and  _466
REMARK  190  A    between atoms: _470  and  _471
REMARK  191  A    between atoms: _476  and  _478
REMARK  192  A    between atoms: _478  and  _479
REMARK  193  A    between atoms: _478  and  _481
REMARK  194  A    between atoms: _481  and  _482
REMARK  195  A    between atoms: _485  and  _487
REMARK  196  A    between atoms: _487  and  _488
REMARK  197  A    between atoms: _487  and  _490
REMARK  198  A    between atoms: _490  and  _491
REMARK  199  A    between atoms: _501  and  _503
REMARK  200  A    between atoms: _503  and  _504
REMARK  201  A    between atoms: _503  and  _506
REMARK  202  A    between atoms: _508  and  _510
REMARK  203  A    between atoms: _510  and  _511
REMARK  204  A    between atoms: _510  and  _513
REMARK  205  A    between atoms: _513  and  _514
REMARK  206  A    between atoms: _514  and  _515
REMARK  207  A    between atoms: _518  and  _520
REMARK  208  A    between atoms: _520  and  _521
REMARK  209  A    between atoms: _520  and  _523
REMARK  210  A    between atoms: _523  and  _524
REMARK  211  A    between atoms: _527  and  _529
REMARK  212  A    between atoms: _529  and  _530
REMARK  213  A    between atoms: _529  and  _532
REMARK  214  A    between atoms: _532  and  _533
REMARK  215  A    between atoms: _538  and  _539
REMARK  216  A    between atoms: _541  and  _543
REMARK  217  A    between atoms: _543  and  _544
REMARK  218  A    between atoms: _546  and  _548
REMARK  219  A    between atoms: _548  and  _549
REMARK  220  A    between atoms: _552  and  _554
REMARK  221  A    between atoms: _554  and  _555
REMARK  222  A    between atoms: _554  and  _557
REMARK  223  A    between atoms: _559  and  _561
REMARK  224  A    between atoms: _561  and  _562
REMARK  225  A    between atoms: _561  and  _564
REMARK  226  A    between atoms: _564  and  _565
REMARK  227  A    between atoms: _570  and  _571
REMARK  228  A    between atoms: _573  and  _575
REMARK  229  A    between atoms: _575  and  _576
REMARK  230  A    between atoms: _575  and  _578
REMARK  231  A    between atoms: _578  and  _579
REMARK  232  A    between atoms: _584  and  _586
REMARK  233  A    between atoms: _586  and  _587
REMARK  234  A    between atoms: _586  and  _589
REMARK  235  A    between atoms: _589  and  _590
REMARK  236  A    between atoms: _596  and  _598
REMARK  237  A    between atoms: _598  and  _599
REMARK  238  A    between atoms: _602  and  _604
REMARK  239  A    between atoms: _604  and  _605
REMARK  240  A    between atoms: _607  and  _609
REMARK  241  A    between atoms: _609  and  _610
REMARK  242  A    between atoms: _609  and  _612
REMARK  243  A    between atoms: _612  and  _613
REMARK  244  A    between atoms: _618  and  _619
REMARK  245  A    between atoms: _621  and  _623
REMARK  246  A    between atoms: _623  and  _624
REMARK  247  A    between atoms: _623  and  _626
REMARK  248  A    between atoms: _626  and  _627
REMARK  249  A    between atoms: _629  and  _631
REMARK  250  A    between atoms: _631  and  _632
REMARK  251  A    between atoms: _634  and  _636
REMARK  252  A    between atoms: _636  and  _637
REMARK                            x       y       z     vdW  Elec       q    Type
REMARK                         _______ _______ _______ _____ _____    ______ ____
ROOT
ATOM      1  CA  SER A   1      43.204  -6.176  -8.976  0.00  0.00    +0.163 C 
ENDROOT
BRANCH   1   2
ATOM      2  N   SER A   1      43.892  -6.737  -7.811  0.00  0.00    -0.237 NA
ATOM      3  H   SER A   1      44.724  -7.345  -7.955  0.00  0.00    +0.142 HD
ENDBRANCH   1   2
BRANCH   1   4
ATOM      4  CB  SER A   1      41.894  -6.887  -9.292  0.00  0.00    +0.227 C 
ATOM      5  OG  SER A   1      41.047  -6.343 -10.008  0.00  0.00    -0.287 OA
ENDBRANCH   1   4
BRANCH   1   6
ATOM      6  C   SER A   1      44.138  -6.199 -10.182  0.00  0.00    +0.162 C 
BRANCH   6   7
ATOM      7  O   SER A   1      44.867  -7.406 -10.219  0.00  0.00    -0.380 OA
ATOM      8  H   SER A   1      45.467  -7.404 -11.007  0.00  0.00    +0.211 HD
ENDBRANCH   6   7
ENDBRANCH   1   6
TORSDOF 4
REMARK  Name = ../refined-set-2016/3hkw/3hkw_pocket.pdb
REMARK  252 active torsions:
REMARK  status: ('A' for Active; 'I' for Inactive)
REMARK    1  A    between atoms: _1  and  _3
REMARK    2  A    between atoms: _3  and  _4
REMARK    3  A    between atoms: _3  and  _6
REMARK    4  A    between atoms: _6  and  _7
REMARK    5  A    between atoms: _7  and  _8
REMARK    6  A    between atoms: _8  and  _9
REMARK    7  A    between atoms: _9  and  _10
REMARK    8  A    between atoms: _14  and  _16
REMARK    9  A    between atoms: _16  and  _17
REMARK   10  A    between atoms: _16  and  _19
REMARK   11  A    between atoms: _19  and  _20
REMARK   12  A    between atoms: _20  and  _21
REMARK   13  A    between atoms: _24  and  _26
REMARK   14  A    between atoms: _26  and  _27
REMARK   15  A    between atoms: _26  and  _29
REMARK   16  A    between atoms: _29  and  _30
REMARK   17  A    between atoms: _30  and  _31
REMARK   18  A    between atoms: _31  and  _32
REMARK   19  A    between atoms: _41  and  _43
REMARK   20  A    between atoms: _43  and  _44
REMARK   21  A    between atoms: _46  and  _48
REMARK   22  A    between atoms: _48  and  _49
REMARK   23  A    between atoms: _48  and  _51
REMARK   24  A    between atoms: _51  and  _52
REMARK   25  A    between atoms: _58  and  _60
REMARK   26  A    between atoms: _60  and  _61
REMARK   27  A    between atoms: _60  and  _63
REMARK   28  A    between atoms: _63  and  _64
REMARK   29  A    between atoms: _69  and  _70
REMARK   30  A    between atoms: _72  and  _74
REMARK   31  A    between atoms: _74  and  _75
REMARK   32  A    between atoms: _74  and  _77
REMARK   33  A    between atoms: _77  and  _78
REMARK   34  A    between atoms: _81  and  _82
REMARK   35  A    between atoms: _87  and  _89
REMARK   36  A    between atoms: _89  and  _90
REMARK   37  A    between atoms: _92  and  _94
REMARK   38  A    between atoms: _94  and  _95
REMARK   39  A    between atoms: _94  and  _97
REMARK   40  A    between atoms: _97  and  _98
REMARK   41  A    between atoms: _98  and  _99
REMARK   42  A    between atoms: _104  and  _106
REMARK   43  A    between atoms: _106  and  _107
REMARK   44  A    between atoms: _106  and  _109
REMARK   45  A    between atoms: _109  and  _110
REMARK   46  A    between atoms: _110  and  _111
REMARK   47  A    between atoms: _111  and  _112
REMARK   48  A    between atoms: _121  and  _123
REMARK   49  A    between atoms: _123  and  _124
REMARK   50  A    between atoms: _123  and  _126
REMARK   51  A    between atoms: _129  and  _131
REMARK   52  A    between atoms: _131  and  _132
REMARK   53  A    between atoms: _131  and  _134
REMARK   54  A    between atoms: _134  and  _135
REMARK   55  A    between atoms: _138  and  _140
REMARK   56  A    between atoms: _140  and  _141
REMARK   57  A    between atoms: _140  and  _143
REMARK   58  A    between atoms: _143  and  _144
REMARK   59  A    between atoms: _147  and  _149
REMARK   60  A    between atoms: _149  and  _150
REMARK   61  A    between atoms: _149  and  _152
REMARK   62  A    between atoms: _152  and  _153
REMARK   63  A    between atoms: _155  and  _157
REMARK   64  A    between atoms: _157  and  _158
REMARK   65  A    between atoms: _157  and  _160
REMARK   66  A    between atoms: _160  and  _161
REMARK   67  A    between atoms: _164  and  _166
REMARK   68  A    between atoms: _166  and  _167
REMARK   69  A    between atoms: _166  and  _169
REMARK   70  A    between atoms: _169  and  _170
REMARK   71  A    between atoms: _172  and  _174
REMARK   72  A    between atoms: _174  and  _175
REMARK   73  A    between atoms: _174  and  _177
REMARK   74  A    between atoms: _177  and  _178
REMARK   75  A    between atoms: _183  and  _185
REMARK   76  A    between atoms: _185  and  _186
REMARK   77  A    between atoms: _185  and  _188
REMARK   78  A    between atoms: _188  and  _189
REMARK   79  A    between atoms: _192  and  _194
REMARK   80  A    between atoms: _194  and  _195
REMARK   81  A    between atoms: _194  and  _197
REMARK   82  A    between atoms: _199  and  _201
REMARK   83  A    between atoms: _201  and  _202
REMARK   84  A    between atoms: _204  and  _206
REMARK   85  A    between atoms: _206  and  _207
REMARK   86  A    between atoms: _206  and  _209
REMARK   87  A    between atoms: _209  and  _210
REMARK   88  A    between atoms: _213  and  _215
REMARK   89  A    between atoms: _215  and  _216
REMARK   90  A    between atoms: _215  and  _218
REMARK   91  A    between atoms: _218  and  _219
REMARK   92  A    between atoms: _222  and  _224
REMARK   93  A    between atoms: _224  and  _225
REMARK   94  A    between atoms: _224  and  _227
REMARK   95  A    between atoms: _227  and  _228
REMARK   96  A    between atoms: _230  and  _232
REMARK   97  A    between atoms: _232  and  _233
REMARK   98  A    between atoms: _232  and  _235
REMARK   99  A    between atoms: _237  and  _239
REMARK  100  A    between atoms: _239  and  _240
REMARK  101  A    between atoms: _239  and  _242
REMARK  102  A    between atoms: _242  and  _243
REMARK  103  A    between atoms: _245  and  _247
REMARK  104  A    between atoms: _247  and  _248
REMARK  105  A    between atoms: _247  and  _250
REMARK  106  A    between atoms: _250  and  _251
REMARK  107  A    between atoms: _253  and  _255
REMARK  108  A    between atoms: _255  and  _256
REMARK  109  A    between atoms: _255  and  _258
REMARK  110  A    between atoms: _258  and  _259
REMARK  111  A    between atoms: _264  and  _266
REMARK  112  A    between atoms: _266  and  _267
REMARK  113  A    between atoms: _266  and  _269
REMARK  114  A    between atoms: _269  and  _270
REMARK  115  A    between atoms: _275  and  _276
REMARK  116  A    between atoms: _278  and  _280
REMARK  117  A    between atoms: _280  and  _281
REMARK  118  A    between atoms: _280  and  _283
REMARK  119  A    between atoms: _283  and  _284
REMARK  120  A    between atoms: _287  and  _289
REMARK  121  A    between atoms: _289  and  _290
REMARK  122  A    between atoms: _289  and  _292
REMARK  123  A    between atoms: _292  and  _293
REMARK  124  A    between atoms: _296  and  _298
REMARK  125  A    between atoms: _298  and  _299
REMARK  126  A    between atoms: _298  and  _301
REMARK  127  A    between atoms: _301  and  _302
REMARK  128  A    between atoms: _302  and  _303
REMARK  129  A    between atoms: _303  and  _304
REMARK  130  A    between atoms: _313  and  _315
REMARK  131  A    between atoms: _315  and  _316
REMARK  132  A    between atoms: _315  and  _318
REMARK  133  A    between atoms: _318  and  _319
REMARK  134  A    between atoms: _323  and  _324
REMARK  135  A    between atoms: _329  and  _331
REMARK  136  A    between atoms: _331  and  _332
REMARK  137  A    between atoms: _331  and  _334
REMARK  138  A    between atoms: _334  and  _335
REMARK  139  A    between atoms: _335  and  _336
REMARK  140  A    between atoms: _336  and  _337
REMARK  141  A    between atoms: _346  and  _348
REMARK  142  A    between atoms: _348  and  _349
REMARK  143  A    between atoms: _348  and  _351
REMARK  144  A    between atoms: _351  and  _352
REMARK  145  A    between atoms: _352  and  _353
REMARK  146  A    between atoms: _356  and  _358
REMARK  147  A    between atoms: _358  and  _359
REMARK  148  A    between atoms: _358  and  _361
REMARK  149  A    between atoms: _364  and  _366
REMARK  150  A    between atoms: _366  and  _367
REMARK  151  A    between atoms: _366  and  _369
REMARK  152  A    between atoms: _369  and  _370
REMARK  153  A    between atoms: _375  and  _377
REMARK  154  A    between atoms: _377  and  _378
REMARK  155  A    between atoms: _377  and  _380
REMARK  156  A    between atoms: _380  and  _381
REMARK  157  A    between atoms: _383  and  _385
REMARK  158  A    between atoms: _385  and  _386
REMARK  159  A    between atoms: _385  and  _388
REMARK  160  A    between atoms: _388  and  _389
REMARK  161  A    between atoms: _399  and  _401
REMARK  162  A    between atoms: _401  and  _402
REMARK  163  A    between atoms: _401  and  _404
REMARK  164  A    between atoms: _404  and  _405
REMARK  165  A    between atoms: _408  and  _410
REMARK  166  A    between atoms: _410  and  _411
REMARK  167  A    between atoms: _413  and  _415
REMARK  168  A    between atoms: _415  and  _416
REMARK  169  A    between atoms: _415  and  _418
REMARK  170  A    between atoms: _418  and  _419
REMARK  171  A    between atoms: _424  and  _426
REMARK  172  A    between atoms: _426  and  _427
REMARK  173  A    between atoms: _426  and  _429
REMARK  174  A    between atoms: _429  and  _430
REMARK  175  A    between atoms: _433  and  _435
REMARK  176  A    between atoms: _435  and  _436
REMARK  177  A    between atoms: _435  and  _438
REMARK  178  A    between atoms: _438  and  _439
REMARK  179  A    between atoms: _442  and  _444
REMARK  180  A    between atoms: _444  and  _445
REMARK  181  A    between atoms: _444  and  _447
REMARK  182  A    between atoms: _447  and  _448
REMARK  183  A    between atoms: _448  and  _449
REMARK  184  A    between atoms: _451  and  _453
REMARK  185  A    between atoms: _453  and  _454
REMARK  186  A    between atoms: _453  and  _456
REMARK  187  A    between atoms: _456  and  _457
REMARK  188  A    between atoms: _463  and  _465
REMARK  189  A    between atoms: _465  and  _466
REMARK  190  A    between atoms: _470  and  _471
REMARK  191  A    between atoms: _476  and  _478
REMARK  192  A    between atoms: _478  and  _479
REMARK  193  A    between atoms: _478  and  _481
REMARK  194  A    between atoms: _481  and  _482
REMARK  195  A    between atoms: _485  and  _487
REMARK  196  A    between atoms: _487  and  _488
REMARK  197  A    between atoms: _487  and  _490
REMARK  198  A    between atoms: _490  and  _491
REMARK  199  A    between atoms: _501  and  _503
REMARK  200  A    between atoms: _503  and  _504
REMARK  201  A    between atoms: _503  and  _506
REMARK  202  A    between atoms: _508  and  _510
REMARK  203  A    between atoms: _510  and  _511
REMARK  204  A    between atoms: _510  and  _513
REMARK  205  A    between atoms: _513  and  _514
REMARK  206  A    between atoms: _514  and  _515
REMARK  207  A    between atoms: _518  and  _520
REMARK  208  A    between atoms: _520  and  _521
REMARK  209  A    between atoms: _520  and  _523
REMARK  210  A    between atoms: _523  and  _524
REMARK  211  A    between atoms: _527  and  _529
REMARK  212  A    between atoms: _529  and  _530
REMARK  213  A    between atoms: _529  and  _532
REMARK  214  A    between atoms: _532  and  _533
REMARK  215  A    between atoms: _538  and  _539
REMARK  216  A    between atoms: _541  and  _543
REMARK  217  A    between atoms: _543  and  _544
REMARK  218  A    between atoms: _546  and  _548
REMARK  219  A    between atoms: _548  and  _549
REMARK  220  A    between atoms: _552  and  _554
REMARK  221  A    between atoms: _554  and  _555
REMARK  222  A    between atoms: _554  and  _557
REMARK  223  A    between atoms: _559  and  _561
REMARK  224  A    between atoms: _561  and  _562
REMARK  225  A    between atoms: _561  and  _564
REMARK  226  A    between atoms: _564  and  _565
REMARK  227  A    between atoms: _570  and  _571
REMARK  228  A    between atoms: _573  and  _575
REMARK  229  A    between atoms: _575  and  _576
REMARK  230  A    between atoms: _575  and  _578
REMARK  231  A    between atoms: _578  and  _579
REMARK  232  A    between atoms: _584  and  _586
REMARK  233  A    between atoms: _586  and  _587
REMARK  234  A    between atoms: _586  and  _589
REMARK  235  A    between atoms: _589  and  _590
REMARK  236  A    between atoms: _596  and  _598
REMARK  237  A    between atoms: _598  and  _599
REMARK  238  A    between atoms: _602  and  _604
REMARK  239  A    between atoms: _604  and  _605
REMARK  240  A    between atoms: _607  and  _609
REMARK  241  A    between atoms: _609  and  _610
REMARK  242  A    between atoms: _609  and  _612
REMARK  243  A    between atoms: _612  and  _613
REMARK  244  A    between atoms: _618  and  _619
REMARK  245  A    between atoms: _621  and  _623
REMARK  246  A    between atoms: _623  and  _624
REMARK  247  A    between atoms: _623  and  _626
REMARK  248  A    between atoms: _626  and  _627
REMARK  249  A    between atoms: _629  and  _631
REMARK  250  A    between atoms: _631  and  _632
REMARK  251  A    between atoms: _634  and  _636
REMARK  252  A    between atoms: _636  and  _637
REMARK                            x       y       z     vdW  Elec       q    Type
REMARK                         _______ _______ _______ _____ _____    ______ ____
ROOT
ATOM      1  C   THR A   1      38.304  -1.787  -6.656  0.00  0.00    +0.241 C 
ATOM      2  O   THR A   1      38.931  -0.768  -6.380  0.00  0.00    -0.274 OA
ATOM      3  N   SER A   2      37.122  -1.742  -7.274  0.00  0.00    -0.296 N 
ATOM      4  H   SER A   2      36.550  -2.604  -7.384  0.00  0.00    +0.150 HD
ENDROOT
BRANCH   1   5
ATOM      5  CA  THR A   1      38.819  -3.149  -6.199  0.00  0.00    +0.172 C 
BRANCH   5   6
ATOM      6  N   THR A   1      37.775  -3.886  -5.491  0.00  0.00    -0.236 NA
ATOM      7  H   THR A   1      37.463  -4.813  -5.845  0.00  0.00    +0.142 HD
ENDBRANCH   5   6
BRANCH   5   8
ATOM      8  CB  THR A   1      39.380  -3.934  -7.379  0.00  0.00    +0.135 C 
ATOM      9  CG2 THR A   1      40.502  -3.148  -8.048  0.00  0.00    +0.034 C 
BRANCH   8  10
ATOM     10  OG1 THR A   1      39.867  -5.210  -6.926  0.00  0.00    -0.383 OA
ATOM     11  HG1 THR A   1      40.581  -5.070  -6.255  0.00  0.00    +0.210 HD
ENDBRANCH   8  10
ENDBRANCH   5   8
ENDBRANCH   1   5
BRANCH   3  12
ATOM     12  CA  SER A   2      36.645  -0.468  -7.792  0.00  0.00    +0.166 C 
BRANCH  12  13
ATOM     13  CB  SER A   2      36.283   0.482  -6.653  0.00  0.00    +0.229 C 
ATOM     14  OG  SER A   2      36.720   1.633  -6.643  0.00  0.00    -0.286 OA
ENDBRANCH  12  13
BRANCH  12  15
ATOM     15  C   SER A   2      35.433  -0.643  -8.700  0.00  0.00    +0.165 C 
BRANCH  15  16
ATOM     16  O   SER A   2      34.981   0.629  -9.149  0.00  0.00    -0.380 OA
ATOM     17  H   SER A   2      35.706   1.077  -9.652  0.00  0.00    +0.211 HD
ENDBRANCH  15  16
ENDBRANCH  12  15
ENDBRANCH   3  12
TORSDOF 8
REMARK  Name = ../refined-set-2016/3hkw/3hkw_pocket.pdb
REMARK  252 active torsions:
REMARK  status: ('A' for Active; 'I' for Inactive)
REMARK    1  A    between atoms: _1  and  _3
REMARK    2  A    between atoms: _3  and  _4
REMARK    3  A    between atoms: _3  and  _6
REMARK    4  A    between atoms: _6  and  _7
REMARK    5  A    between atoms: _7  and  _8
REMARK    6  A    between atoms: _8  and  _9
REMARK    7  A    between atoms: _9  and  _10
REMARK    8  A    between atoms: _14  and  _16
REMARK    9  A    between atoms: _16  and  _17
REMARK   10  A    between atoms: _16  and  _19
REMARK   11  A    between atoms: _19  and  _20
REMARK   12  A    between atoms: _20  and  _21
REMARK   13  A    between atoms: _24  and  _26
REMARK   14  A    between atoms: _26  and  _27
REMARK   15  A    between atoms: _26  and  _29
REMARK   16  A    between atoms: _29  and  _30
REMARK   17  A    between atoms: _30  and  _31
REMARK   18  A    between atoms: _31  and  _32
REMARK   19  A    between atoms: _41  and  _43
REMARK   20  A    between atoms: _43  and  _44
REMARK   21  A    between atoms: _46  and  _48
REMARK   22  A    between atoms: _48  and  _49
REMARK   23  A    between atoms: _48  and  _51
REMARK   24  A    between atoms: _51  and  _52
REMARK   25  A    between atoms: _58  and  _60
REMARK   26  A    between atoms: _60  and  _61
REMARK   27  A    between atoms: _60  and  _63
REMARK   28  A    between atoms: _63  and  _64
REMARK   29  A    between atoms: _69  and  _70
REMARK   30  A    between atoms: _72  and  _74
REMARK   31  A    between atoms: _74  and  _75
REMARK   32  A    between atoms: _74  and  _77
REMARK   33  A    between atoms: _77  and  _78
REMARK   34  A    between atoms: _81  and  _82
REMARK   35  A    between atoms: _87  and  _89
REMARK   36  A    between atoms: _89  and  _90
REMARK   37  A    between atoms: _92  and  _94
REMARK   38  A    between atoms: _94  and  _95
REMARK   39  A    between atoms: _94  and  _97
REMARK   40  A    between atoms: _97  and  _98
REMARK   41  A    between atoms: _98  and  _99
REMARK   42  A    between atoms: _104  and  _106
REMARK   43  A    between atoms: _106  and  _107
REMARK   44  A    between atoms: _106  and  _109
REMARK   45  A    between atoms: _109  and  _110
REMARK   46  A    between atoms: _110  and  _111
REMARK   47  A    between atoms: _111  and  _112
REMARK   48  A    between atoms: _121  and  _123
REMARK   49  A    between atoms: _123  and  _124
REMARK   50  A    between atoms: _123  and  _126
REMARK   51  A    between atoms: _129  and  _131
REMARK   52  A    between atoms: _131  and  _132
REMARK   53  A    between atoms: _131  and  _134
REMARK   54  A    between atoms: _134  and  _135
REMARK   55  A    between atoms: _138  and  _140
REMARK   56  A    between atoms: _140  and  _141
REMARK   57  A    between atoms: _140  and  _143
REMARK   58  A    between atoms: _143  and  _144
REMARK   59  A    between atoms: _147  and  _149
REMARK   60  A    between atoms: _149  and  _150
REMARK   61  A    between atoms: _149  and  _152
REMARK   62  A    between atoms: _152  and  _153
REMARK   63  A    between atoms: _155  and  _157
REMARK   64  A    between atoms: _157  and  _158
REMARK   65  A    between atoms: _157  and  _160
REMARK   66  A    between atoms: _160  and  _161
REMARK   67  A    between atoms: _164  and  _166
REMARK   68  A    between atoms: _166  and  _167
REMARK   69  A    between atoms: _166  and  _169
REMARK   70  A    between atoms: _169  and  _170
REMARK   71  A    between atoms: _172  and  _174
REMARK   72  A    between atoms: _174  and  _175
REMARK   73  A    between atoms: _174  and  _177
REMARK   74  A    between atoms: _177  and  _178
REMARK   75  A    between atoms: _183  and  _185
REMARK   76  A    between atoms: _185  and  _186
REMARK   77  A    between atoms: _185  and  _188
REMARK   78  A    between atoms: _188  and  _189
REMARK   79  A    between atoms: _192  and  _194
REMARK   80  A    between atoms: _194  and  _195
REMARK   81  A    between atoms: _194  and  _197
REMARK   82  A    between atoms: _199  and  _201
REMARK   83  A    between atoms: _201  and  _202
REMARK   84  A    between atoms: _204  and  _206
REMARK   85  A    between atoms: _206  and  _207
REMARK   86  A    between atoms: _206  and  _209
REMARK   87  A    between atoms: _209  and  _210
REMARK   88  A    between atoms: _213  and  _215
REMARK   89  A    between atoms: _215  and  _216
REMARK   90  A    between atoms: _215  and  _218
REMARK   91  A    between atoms: _218  and  _219
REMARK   92  A    between atoms: _222  and  _224
REMARK   93  A    between atoms: _224  and  _225
REMARK   94  A    between atoms: _224  and  _227
REMARK   95  A    between atoms: _227  and  _228
REMARK   96  A    between atoms: _230  and  _232
REMARK   97  A    between atoms: _232  and  _233
REMARK   98  A    between atoms: _232  and  _235
REMARK   99  A    between atoms: _237  and  _239
REMARK  100  A    between atoms: _239  and  _240
REMARK  101  A    between atoms: _239  and  _242
REMARK  102  A    between atoms: _242  and  _243
REMARK  103  A    between atoms: _245  and  _247
REMARK  104  A    between atoms: _247  and  _248
REMARK  105  A    between atoms: _247  and  _250
REMARK  106  A    between atoms: _250  and  _251
REMARK  107  A    between atoms: _253  and  _255
REMARK  108  A    between atoms: _255  and  _256
REMARK  109  A    between atoms: _255  and  _258
REMARK  110  A    between atoms: _258  and  _259
REMARK  111  A    between atoms: _264  and  _266
REMARK  112  A    between atoms: _266  and  _267
REMARK  113  A    between atoms: _266  and  _269
REMARK  114  A    between atoms: _269  and  _270
REMARK  115  A    between atoms: _275  and  _276
REMARK  116  A    between atoms: _278  and  _280
REMARK  117  A    between atoms: _280  and  _281
REMARK  118  A    between atoms: _280  and  _283
REMARK  119  A    between atoms: _283  and  _284
REMARK  120  A    between atoms: _287  and  _289
REMARK  121  A    between atoms: _289  and  _290
REMARK  122  A    between atoms: _289  and  _292
REMARK  123  A    between atoms: _292  and  _293
REMARK  124  A    between atoms: _296  and  _298
REMARK  125  A    between atoms: _298  and  _299
REMARK  126  A    between atoms: _298  and  _301
REMARK  127  A    between atoms: _301  and  _302
REMARK  128  A    between atoms: _302  and  _303
REMARK  129  A    between atoms: _303  and  _304
REMARK  130  A    between atoms: _313  and  _315
REMARK  131  A    between atoms: _315  and  _316
REMARK  132  A    between atoms: _315  and  _318
REMARK  133  A    between atoms: _318  and  _319
REMARK  134  A    between atoms: _323  and  _324
REMARK  135  A    between atoms: _329  and  _331
REMARK  136  A    between atoms: _331  and  _332
REMARK  137  A    between atoms: _331  and  _334
REMARK  138  A    between atoms: _334  and  _335
REMARK  139  A    between atoms: _335  and  _336
REMARK  140  A    between atoms: _336  and  _337
REMARK  141  A    between atoms: _346  and  _348
REMARK  142  A    between atoms: _348  and  _349
REMARK  143  A    between atoms: _348  and  _351
REMARK  144  A    between atoms: _351  and  _352
REMARK  145  A    between atoms: _352  and  _353
REMARK  146  A    between atoms: _356  and  _358
REMARK  147  A    between atoms: _358  and  _359
REMARK  148  A    between atoms: _358  and  _361
REMARK  149  A    between atoms: _364  and  _366
REMARK  150  A    between atoms: _366  and  _367
REMARK  151  A    between atoms: _366  and  _369
REMARK  152  A    between atoms: _369  and  _370
REMARK  153  A    between atoms: _375  and  _377
REMARK  154  A    between atoms: _377  and  _378
REMARK  155  A    between atoms: _377  and  _380
REMARK  156  A    between atoms: _380  and  _381
REMARK  157  A    between atoms: _383  and  _385
REMARK  158  A    between atoms: _385  and  _386
REMARK  159  A    between atoms: _385  and  _388
REMARK  160  A    between atoms: _388  and  _389
REMARK  161  A    between atoms: _399  and  _401
REMARK  162  A    between atoms: _401  and  _402
REMARK  163  A    between atoms: _401  and  _404
REMARK  164  A    between atoms: _404  and  _405
REMARK  165  A    between atoms: _408  and  _410
REMARK  166  A    between atoms: _410  and  _411
REMARK  167  A    between atoms: _413  and  _415
REMARK  168  A    between atoms: _415  and  _416
REMARK  169  A    between atoms: _415  and  _418
REMARK  170  A    between atoms: _418  and  _419
REMARK  171  A    between atoms: _424  and  _426
REMARK  172  A    between atoms: _426  and  _427
REMARK  173  A    between atoms: _426  and  _429
REMARK  174  A    between atoms: _429  and  _430
REMARK  175  A    between atoms: _433  and  _435
REMARK  176  A    between atoms: _435  and  _436
REMARK  177  A    between atoms: _435  and  _438
REMARK  178  A    between atoms: _438  and  _439
REMARK  179  A    between atoms: _442  and  _444
REMARK  180  A    between atoms: _444  and  _445
REMARK  181  A    between atoms: _444  and  _447
REMARK  182  A    between atoms: _447  and  _448
REMARK  183  A    between atoms: _448  and  _449
REMARK  184  A    between atoms: _451  and  _453
REMARK  185  A    between atoms: _453  and  _454
REMARK  186  A    between atoms: _453  and  _456
REMARK  187  A    between atoms: _456  and  _457
REMARK  188  A    between atoms: _463  and  _465
REMARK  189  A    between atoms: _465  and  _466
REMARK  190  A    between atoms: _470  and  _471
REMARK  191  A    between atoms: _476  and  _478
REMARK  192  A    between atoms: _478  and  _479
REMARK  193  A    between atoms: _478  and  _481
REMARK  194  A    between atoms: _481  and  _482
REMARK  195  A    between atoms: _485  and  _487
REMARK  196  A    between atoms: _487  and  _488
REMARK  197  A    between atoms: _487  and  _490
REMARK  198  A    between atoms: _490  and  _491
REMARK  199  A    between atoms: _501  and  _503
REMARK  200  A    between atoms: _503  and  _504
REMARK  201  A    between atoms: _503  and  _506
REMARK  202  A    between atoms: _508  and  _510
REMARK  203  A    between atoms: _510  and  _511
REMARK  204  A    between atoms: _510  and  _513
REMARK  205  A    between atoms: _513  and  _514
REMARK  206  A    between atoms: _514  and  _515
REMARK  207  A    between atoms: _518  and  _520
REMARK  208  A    between atoms: _520  and  _521
REMARK  209  A    between atoms: _520  and  _523
REMARK  210  A    between atoms: _523  and  _524
REMARK  211  A    between atoms: _527  and  _529
REMARK  212  A    between atoms: _529  and  _530
REMARK  213  A    between atoms: _529  and  _532
REMARK  214  A    between atoms: _532  and  _533
REMARK  215  A    between atoms: _538  and  _539
REMARK  216  A    between atoms: _541  and  _543
REMARK  217  A    between atoms: _543  and  _544
REMARK  218  A    between atoms: _546  and  _548
REMARK  219  A    between atoms: _548  and  _549
REMARK  220  A    between atoms: _552  and  _554
REMARK  221  A    between atoms: _554  and  _555
REMARK  222  A    between atoms: _554  and  _557
REMARK  223  A    between atoms: _559  and  _561
REMARK  224  A    between atoms: _561  and  _562
REMARK  225  A    between atoms: _561  and  _564
REMARK  226  A    between atoms: _564  and  _565
REMARK  227  A    between atoms: _570  and  _571
REMARK  228  A    between atoms: _573  and  _575
REMARK  229  A    between atoms: _575  and  _576
REMARK  230  A    between atoms: _575  and  _578
REMARK  231  A    between atoms: _578  and  _579
REMARK  232  A    between atoms: _584  and  _586
REMARK  233  A    between atoms: _586  and  _587
REMARK  234  A    between atoms: _586  and  _589
REMARK  235  A    between atoms: _589  and  _590
REMARK  236  A    between atoms: _596  and  _598
REMARK  237  A    between atoms: _598  and  _599
REMARK  238  A    between atoms: _602  and  _604
REMARK  239  A    between atoms: _604  and  _605
REMARK  240  A    between atoms: _607  and  _609
REMARK  241  A    between atoms: _609  and  _610
REMARK  242  A    between atoms: _609  and  _612
REMARK  243  A    between atoms: _612  and  _613
REMARK  244  A    between atoms: _618  and  _619
REMARK  245  A    between atoms: _621  and  _623
REMARK  246  A    between atoms: _623  and  _624
REMARK  247  A    between atoms: _623  and  _626
REMARK  248  A    between atoms: _626  and  _627
REMARK  249  A    between atoms: _629  and  _631
REMARK  250  A    between atoms: _631  and  _632
REMARK  251  A    between atoms: _634  and  _636
REMARK  252  A    between atoms: _636  and  _637
REMARK                            x       y       z     vdW  Elec       q    Type
REMARK                         _______ _______ _______ _____ _____    ______ ____
ROOT
ATOM      1  CB  ASN A   1      40.593   1.911  -6.811  0.00  0.00    +0.110 C 
ENDROOT
BRANCH   1   2
ATOM      2  CG  ASN A   1      41.740   0.916  -6.787  0.00  0.00    +0.221 C 
ATOM      3  OD1 ASN A   1      42.417   0.768  -5.773  0.00  0.00    -0.275 OA
ATOM      4  ND2 ASN A   1      41.965   0.231  -7.906  0.00  0.00    -0.329 N 
ATOM      5 HD21 ASN A   1      42.740  -0.462  -7.945  0.00  0.00    +0.145 HD
ATOM      6 HD22 ASN A   1      41.366   0.389  -8.742  0.00  0.00    +0.145 HD
ENDBRANCH   1   2
BRANCH   1   7
ATOM      7  CA  ASN A   1      40.249   2.437  -5.424  0.00  0.00    +0.142 C 
BRANCH   7   8
ATOM      8  N   ASN A   1      39.430   1.504  -4.672  0.00  0.00    -0.239 NA
ATOM      9  H   ASN A   1      39.041   0.659  -5.136  0.00  0.00    +0.142 HD
ENDBRANCH   7   8
BRANCH   7  10
ATOM     10  C   ASN A   1      39.603   3.804  -5.506  0.00  0.00    +0.225 C 
ATOM     11  O   ASN A   1      40.275   4.822  -5.350  0.00  0.00    -0.287 OA
ENDBRANCH   7  10
ENDBRANCH   1   7
TORSDOF 4
REMARK  Name = ../refined-set-2016/3hkw/3hkw_pocket.pdb
REMARK  252 active torsions:
REMARK  status: ('A' for Active; 'I' for Inactive)
REMARK    1  A    between atoms: _1  and  _3
REMARK    2  A    between atoms: _3  and  _4
REMARK    3  A    between atoms: _3  and  _6
REMARK    4  A    between atoms: _6  and  _7
REMARK    5  A    between atoms: _7  and  _8
REMARK    6  A    between atoms: _8  and  _9
REMARK    7  A    between atoms: _9  and  _10
REMARK    8  A    between atoms: _14  and  _16
REMARK    9  A    between atoms: _16  and  _17
REMARK   10  A    between atoms: _16  and  _19
REMARK   11  A    between atoms: _19  and  _20
REMARK   12  A    between atoms: _20  and  _21
REMARK   13  A    between atoms: _24  and  _26
REMARK   14  A    between atoms: _26  and  _27
REMARK   15  A    between atoms: _26  and  _29
REMARK   16  A    between atoms: _29  and  _30
REMARK   17  A    between atoms: _30  and  _31
REMARK   18  A    between atoms: _31  and  _32
REMARK   19  A    between atoms: _41  and  _43
REMARK   20  A    between atoms: _43  and  _44
REMARK   21  A    between atoms: _46  and  _48
REMARK   22  A    between atoms: _48  and  _49
REMARK   23  A    between atoms: _48  and  _51
REMARK   24  A    between atoms: _51  and  _52
REMARK   25  A    between atoms: _58  and  _60
REMARK   26  A    between atoms: _60  and  _61
REMARK   27  A    between atoms: _60  and  _63
REMARK   28  A    between atoms: _63  and  _64
REMARK   29  A    between atoms: _69  and  _70
REMARK   30  A    between atoms: _72  and  _74
REMARK   31  A    between atoms: _74  and  _75
REMARK   32  A    between atoms: _74  and  _77
REMARK   33  A    between atoms: _77  and  _78
REMARK   34  A    between atoms: _81  and  _82
REMARK   35  A    between atoms: _87  and  _89
REMARK   36  A    between atoms: _89  and  _90
REMARK   37  A    between atoms: _92  and  _94
REMARK   38  A    between atoms: _94  and  _95
REMARK   39  A    between atoms: _94  and  _97
REMARK   40  A    between atoms: _97  and  _98
REMARK   41  A    between atoms: _98  and  _99
REMARK   42  A    between atoms: _104  and  _106
REMARK   43  A    between atoms: _106  and  _107
REMARK   44  A    between atoms: _106  and  _109
REMARK   45  A    between atoms: _109  and  _110
REMARK   46  A    between atoms: _110  and  _111
REMARK   47  A    between atoms: _111  and  _112
REMARK   48  A    between atoms: _121  and  _123
REMARK   49  A    between atoms: _123  and  _124
REMARK   50  A    between atoms: _123  and  _126
REMARK   51  A    between atoms: _129  and  _131
REMARK   52  A    between atoms: _131  and  _132
REMARK   53  A    between atoms: _131  and  _134
REMARK   54  A    between atoms: _134  and  _135
REMARK   55  A    between atoms: _138  and  _140
REMARK   56  A    between atoms: _140  and  _141
REMARK   57  A    between atoms: _140  and  _143
REMARK   58  A    between atoms: _143  and  _144
REMARK   59  A    between atoms: _147  and  _149
REMARK   60  A    between atoms: _149  and  _150
REMARK   61  A    between atoms: _149  and  _152
REMARK   62  A    between atoms: _152  and  _153
REMARK   63  A    between atoms: _155  and  _157
REMARK   64  A    between atoms: _157  and  _158
REMARK   65  A    between atoms: _157  and  _160
REMARK   66  A    between atoms: _160  and  _161
REMARK   67  A    between atoms: _164  and  _166
REMARK   68  A    between atoms: _166  and  _167
REMARK   69  A    between atoms: _166  and  _169
REMARK   70  A    between atoms: _169  and  _170
REMARK   71  A    between atoms: _172  and  _174
REMARK   72  A    between atoms: _174  and  _175
REMARK   73  A    between atoms: _174  and  _177
REMARK   74  A    between atoms: _177  and  _178
REMARK   75  A    between atoms: _183  and  _185
REMARK   76  A    between atoms: _185  and  _186
REMARK   77  A    between atoms: _185  and  _188
REMARK   78  A    between atoms: _188  and  _189
REMARK   79  A    between atoms: _192  and  _194
REMARK   80  A    between atoms: _194  and  _195
REMARK   81  A    between atoms: _194  and  _197
REMARK   82  A    between atoms: _199  and  _201
REMARK   83  A    between atoms: _201  and  _202
REMARK   84  A    between atoms: _204  and  _206
REMARK   85  A    between atoms: _206  and  _207
REMARK   86  A    between atoms: _206  and  _209
REMARK   87  A    between atoms: _209  and  _210
REMARK   88  A    between atoms: _213  and  _215
REMARK   89  A    between atoms: _215  and  _216
REMARK   90  A    between atoms: _215  and  _218
REMARK   91  A    between atoms: _218  and  _219
REMARK   92  A    between atoms: _222  and  _224
REMARK   93  A    between atoms: _224  and  _225
REMARK   94  A    between atoms: _224  and  _227
REMARK   95  A    between atoms: _227  and  _228
REMARK   96  A    between atoms: _230  and  _232
REMARK   97  A    between atoms: _232  and  _233
REMARK   98  A    between atoms: _232  and  _235
REMARK   99  A    between atoms: _237  and  _239
REMARK  100  A    between atoms: _239  and  _240
REMARK  101  A    between atoms: _239  and  _242
REMARK  102  A    between atoms: _242  and  _243
REMARK  103  A    between atoms: _245  and  _247
REMARK  104  A    between atoms: _247  and  _248
REMARK  105  A    between atoms: _247  and  _250
REMARK  106  A    between atoms: _250  and  _251
REMARK  107  A    between atoms: _253  and  _255
REMARK  108  A    between atoms: _255  and  _256
REMARK  109  A    between atoms: _255  and  _258
REMARK  110  A    between atoms: _258  and  _259
REMARK  111  A    between atoms: _264  and  _266
REMARK  112  A    between atoms: _266  and  _267
REMARK  113  A    between atoms: _266  and  _269
REMARK  114  A    between atoms: _269  and  _270
REMARK  115  A    between atoms: _275  and  _276
REMARK  116  A    between atoms: _278  and  _280
REMARK  117  A    between atoms: _280  and  _281
REMARK  118  A    between atoms: _280  and  _283
REMARK  119  A    between atoms: _283  and  _284
REMARK  120  A    between atoms: _287  and  _289
REMARK  121  A    between atoms: _289  and  _290
REMARK  122  A    between atoms: _289  and  _292
REMARK  123  A    between atoms: _292  and  _293
REMARK  124  A    between atoms: _296  and  _298
REMARK  125  A    between atoms: _298  and  _299
REMARK  126  A    between atoms: _298  and  _301
REMARK  127  A    between atoms: _301  and  _302
REMARK  128  A    between atoms: _302  and  _303
REMARK  129  A    between atoms: _303  and  _304
REMARK  130  A    between atoms: _313  and  _315
REMARK  131  A    between atoms: _315  and  _316
REMARK  132  A    between atoms: _315  and  _318
REMARK  133  A    between atoms: _318  and  _319
REMARK  134  A    between atoms: _323  and  _324
REMARK  135  A    between atoms: _329  and  _331
REMARK  136  A    between atoms: _331  and  _332
REMARK  137  A    between atoms: _331  and  _334
REMARK  138  A    between atoms: _334  and  _335
REMARK  139  A    between atoms: _335  and  _336
REMARK  140  A    between atoms: _336  and  _337
REMARK  141  A    between atoms: _346  and  _348
REMARK  142  A    between atoms: _348  and  _349
REMARK  143  A    between atoms: _348  and  _351
REMARK  144  A    between atoms: _351  and  _352
REMARK  145  A    between atoms: _352  and  _353
REMARK  146  A    between atoms: _356  and  _358
REMARK  147  A    between atoms: _358  and  _359
REMARK  148  A    between atoms: _358  and  _361
REMARK  149  A    between atoms: _364  and  _366
REMARK  150  A    between atoms: _366  and  _367
REMARK  151  A    between atoms: _366  and  _369
REMARK  152  A    between atoms: _369  and  _370
REMARK  153  A    between atoms: _375  and  _377
REMARK  154  A    between atoms: _377  and  _378
REMARK  155  A    between atoms: _377  and  _380
REMARK  156  A    between atoms: _380  and  _381
REMARK  157  A    between atoms: _383  and  _385
REMARK  158  A    between atoms: _385  and  _386
REMARK  159  A    between atoms: _385  and  _388
REMARK  160  A    between atoms: _388  and  _389
REMARK  161  A    between atoms: _399  and  _401
REMARK  162  A    between atoms: _401  and  _402
REMARK  163  A    between atoms: _401  and  _404
REMARK  164  A    between atoms: _404  and  _405
REMARK  165  A    between atoms: _408  and  _410
REMARK  166  A    between atoms: _410  and  _411
REMARK  167  A    between atoms: _413  and  _415
REMARK  168  A    between atoms: _415  and  _416
REMARK  169  A    between atoms: _415  and  _418
REMARK  170  A    between atoms: _418  and  _419
REMARK  171  A    between atoms: _424  and  _426
REMARK  172  A    between atoms: _426  and  _427
REMARK  173  A    between atoms: _426  and  _429
REMARK  174  A    between atoms: _429  and  _430
REMARK  175  A    between atoms: _433  and  _435
REMARK  176  A    between atoms: _435  and  _436
REMARK  177  A    between atoms: _435  and  _438
REMARK  178  A    between atoms: _438  and  _439
REMARK  179  A    between atoms: _442  and  _444
REMARK  180  A    between atoms: _444  and  _445
REMARK  181  A    between atoms: _444  and  _447
REMARK  182  A    between atoms: _447  and  _448
REMARK  183  A    between atoms: _448  and  _449
REMARK  184  A    between atoms: _451  and  _453
REMARK  185  A    between atoms: _453  and  _454
REMARK  186  A    between atoms: _453  and  _456
REMARK  187  A    between atoms: _456  and  _457
REMARK  188  A    between atoms: _463  and  _465
REMARK  189  A    between atoms: _465  and  _466
REMARK  190  A    between atoms: _470  and  _471
REMARK  191  A    between atoms: _476  and  _478
REMARK  192  A    between atoms: _478  and  _479
REMARK  193  A    between atoms: _478  and  _481
REMARK  194  A    between atoms: _481  and  _482
REMARK  195  A    between atoms: _485  and  _487
REMARK  196  A    between atoms: _487  and  _488
REMARK  197  A    between atoms: _487  and  _490
REMARK  198  A    between atoms: _490  and  _491
REMARK  199  A    between atoms: _501  and  _503
REMARK  200  A    between atoms: _503  and  _504
REMARK  201  A    between atoms: _503  and  _506
REMARK  202  A    between atoms: _508  and  _510
REMARK  203  A    between atoms: _510  and  _511
REMARK  204  A    between atoms: _510  and  _513
REMARK  205  A    between atoms: _513  and  _514
REMARK  206  A    between atoms: _514  and  _515
REMARK  207  A    between atoms: _518  and  _520
REMARK  208  A    between atoms: _520  and  _521
REMARK  209  A    between atoms: _520  and  _523
REMARK  210  A    between atoms: _523  and  _524
REMARK  211  A    between atoms: _527  and  _529
REMARK  212  A    between atoms: _529  and  _530
REMARK  213  A    between atoms: _529  and  _532
REMARK  214  A    between atoms: _532  and  _533
REMARK  215  A    between atoms: _538  and  _539
REMARK  216  A    between atoms: _541  and  _543
REMARK  217  A    between atoms: _543  and  _544
REMARK  218  A    between atoms: _546  and  _548
REMARK  219  A    between atoms: _548  and  _549
REMARK  220  A    between atoms: _552  and  _554
REMARK  221  A    between atoms: _554  and  _555
REMARK  222  A    between atoms: _554  and  _557
REMARK  223  A    between atoms: _559  and  _561
REMARK  224  A    between atoms: _561  and  _562
REMARK  225  A    between atoms: _561  and  _564
REMARK  226  A    between atoms: _564  and  _565
REMARK  227  A    between atoms: _570  and  _571
REMARK  228  A    between atoms: _573  and  _575
REMARK  229  A    between atoms: _575  and  _576
REMARK  230  A    between atoms: _575  and  _578
REMARK  231  A    between atoms: _578  and  _579
REMARK  232  A    between atoms: _584  and  _586
REMARK  233  A    between atoms: _586  and  _587
REMARK  234  A    between atoms: _586  and  _589
REMARK  235  A    between atoms: _589  and  _590
REMARK  236  A    between atoms: _596  and  _598
REMARK  237  A    between atoms: _598  and  _599
REMARK  238  A    between atoms: _602  and  _604
REMARK  239  A    between atoms: _604  and  _605
REMARK  240  A    between atoms: _607  and  _609
REMARK  241  A    between atoms: _609  and  _610
REMARK  242  A    between atoms: _609  and  _612
REMARK  243  A    between atoms: _612  and  _613
REMARK  244  A    between atoms: _618  and  _619
REMARK  245  A    between atoms: _621  and  _623
REMARK  246  A    between atoms: _623  and  _624
REMARK  247  A    between atoms: _623  and  _626
REMARK  248  A    between atoms: _626  and  _627
REMARK  249  A    between atoms: _629  and  _631
REMARK  250  A    between atoms: _631  and  _632
REMARK  251  A    between atoms: _634  and  _636
REMARK  252  A    between atoms: _636  and  _637
REMARK                            x       y       z     vdW  Elec       q    Type
REMARK                         _______ _______ _______ _____ _____    ______ ____
ROOT
ATOM      1  CA  LEU A   1      35.128  13.403 -10.780  0.00  0.00    +0.133 C 
ENDROOT
BRANCH   1   2
ATOM      2  N   LEU A   1      35.830  14.577 -10.274  0.00  0.00    -0.239 NA
ATOM      3  H   LEU A   1      36.795  14.764 -10.614  0.00  0.00    +0.142 HD
ENDBRANCH   1   2
BRANCH   1   4
ATOM      4  C   LEU A   1      36.082  12.228 -10.683  0.00  0.00    +0.224 C 
ATOM      5  O   LEU A   1      37.155  12.242 -11.296  0.00  0.00    -0.287 OA
ENDBRANCH   1   4
BRANCH   1   6
ATOM      6  CB  LEU A   1      34.669  13.627 -12.214  0.00  0.00    +0.025 C 
BRANCH   6   7
ATOM      7  CG  LEU A   1      33.723  12.601 -12.802  0.00  0.00    +0.002 C 
ATOM      8  CD2 LEU A   1      32.379  12.596 -12.154  0.00  0.00    +0.000 C 
ATOM      9  CD1 LEU A   1      33.571  12.916 -14.266  0.00  0.00    +0.000 C 
ENDBRANCH   6   7
ENDBRANCH   1   6
TORSDOF 4
REMARK  Name = ../refined-set-2016/3hkw/3hkw_pocket.pdb
REMARK  252 active torsions:
REMARK  status: ('A' for Active; 'I' for Inactive)
REMARK    1  A    between atoms: _1  and  _3
REMARK    2  A    between atoms: _3  and  _4
REMARK    3  A    between atoms: _3  and  _6
REMARK    4  A    between atoms: _6  and  _7
REMARK    5  A    between atoms: _7  and  _8
REMARK    6  A    between atoms: _8  and  _9
REMARK    7  A    between atoms: _9  and  _10
REMARK    8  A    between atoms: _14  and  _16
REMARK    9  A    between atoms: _16  and  _17
REMARK   10  A    between atoms: _16  and  _19
REMARK   11  A    between atoms: _19  and  _20
REMARK   12  A    between atoms: _20  and  _21
REMARK   13  A    between atoms: _24  and  _26
REMARK   14  A    between atoms: _26  and  _27
REMARK   15  A    between atoms: _26  and  _29
REMARK   16  A    between atoms: _29  and  _30
REMARK   17  A    between atoms: _30  and  _31
REMARK   18  A    between atoms: _31  and  _32
REMARK   19  A    between atoms: _41  and  _43
REMARK   20  A    between atoms: _43  and  _44
REMARK   21  A    between atoms: _46  and  _48
REMARK   22  A    between atoms: _48  and  _49
REMARK   23  A    between atoms: _48  and  _51
REMARK   24  A    between atoms: _51  and  _52
REMARK   25  A    between atoms: _58  and  _60
REMARK   26  A    between atoms: _60  and  _61
REMARK   27  A    between atoms: _60  and  _63
REMARK   28  A    between atoms: _63  and  _64
REMARK   29  A    between atoms: _69  and  _70
REMARK   30  A    between atoms: _72  and  _74
REMARK   31  A    between atoms: _74  and  _75
REMARK   32  A    between atoms: _74  and  _77
REMARK   33  A    between atoms: _77  and  _78
REMARK   34  A    between atoms: _81  and  _82
REMARK   35  A    between atoms: _87  and  _89
REMARK   36  A    between atoms: _89  and  _90
REMARK   37  A    between atoms: _92  and  _94
REMARK   38  A    between atoms: _94  and  _95
REMARK   39  A    between atoms: _94  and  _97
REMARK   40  A    between atoms: _97  and  _98
REMARK   41  A    between atoms: _98  and  _99
REMARK   42  A    between atoms: _104  and  _106
REMARK   43  A    between atoms: _106  and  _107
REMARK   44  A    between atoms: _106  and  _109
REMARK   45  A    between atoms: _109  and  _110
REMARK   46  A    between atoms: _110  and  _111
REMARK   47  A    between atoms: _111  and  _112
REMARK   48  A    between atoms: _121  and  _123
REMARK   49  A    between atoms: _123  and  _124
REMARK   50  A    between atoms: _123  and  _126
REMARK   51  A    between atoms: _129  and  _131
REMARK   52  A    between atoms: _131  and  _132
REMARK   53  A    between atoms: _131  and  _134
REMARK   54  A    between atoms: _134  and  _135
REMARK   55  A    between atoms: _138  and  _140
REMARK   56  A    between atoms: _140  and  _141
REMARK   57  A    between atoms: _140  and  _143
REMARK   58  A    between atoms: _143  and  _144
REMARK   59  A    between atoms: _147  and  _149
REMARK   60  A    between atoms: _149  and  _150
REMARK   61  A    between atoms: _149  and  _152
REMARK   62  A    between atoms: _152  and  _153
REMARK   63  A    between atoms: _155  and  _157
REMARK   64  A    between atoms: _157  and  _158
REMARK   65  A    between atoms: _157  and  _160
REMARK   66  A    between atoms: _160  and  _161
REMARK   67  A    between atoms: _164  and  _166
REMARK   68  A    between atoms: _166  and  _167
REMARK   69  A    between atoms: _166  and  _169
REMARK   70  A    between atoms: _169  and  _170
REMARK   71  A    between atoms: _172  and  _174
REMARK   72  A    between atoms: _174  and  _175
REMARK   73  A    between atoms: _174  and  _177
REMARK   74  A    between atoms: _177  and  _178
REMARK   75  A    between atoms: _183  and  _185
REMARK   76  A    between atoms: _185  and  _186
REMARK   77  A    between atoms: _185  and  _188
REMARK   78  A    between atoms: _188  and  _189
REMARK   79  A    between atoms: _192  and  _194
REMARK   80  A    between atoms: _194  and  _195
REMARK   81  A    between atoms: _194  and  _197
REMARK   82  A    between atoms: _199  and  _201
REMARK   83  A    between atoms: _201  and  _202
REMARK   84  A    between atoms: _204  and  _206
REMARK   85  A    between atoms: _206  and  _207
REMARK   86  A    between atoms: _206  and  _209
REMARK   87  A    between atoms: _209  and  _210
REMARK   88  A    between atoms: _213  and  _215
REMARK   89  A    between atoms: _215  and  _216
REMARK   90  A    between atoms: _215  and  _218
REMARK   91  A    between atoms: _218  and  _219
REMARK   92  A    between atoms: _222  and  _224
REMARK   93  A    between atoms: _224  and  _225
REMARK   94  A    between atoms: _224  and  _227
REMARK   95  A    between atoms: _227  and  _228
REMARK   96  A    between atoms: _230  and  _232
REMARK   97  A    between atoms: _232  and  _233
REMARK   98  A    between atoms: _232  and  _235
REMARK   99  A    between atoms: _237  and  _239
REMARK  100  A    between atoms: _239  and  _240
REMARK  101  A    between atoms: _239  and  _242
REMARK  102  A    between atoms: _242  and  _243
REMARK  103  A    between atoms: _245  and  _247
REMARK  104  A    between atoms: _247  and  _248
REMARK  105  A    between atoms: _247  and  _250
REMARK  106  A    between atoms: _250  and  _251
REMARK  107  A    between atoms: _253  and  _255
REMARK  108  A    between atoms: _255  and  _256
REMARK  109  A    between atoms: _255  and  _258
REMARK  110  A    between atoms: _258  and  _259
REMARK  111  A    between atoms: _264  and  _266
REMARK  112  A    between atoms: _266  and  _267
REMARK  113  A    between atoms: _266  and  _269
REMARK  114  A    between atoms: _269  and  _270
REMARK  115  A    between atoms: _275  and  _276
REMARK  116  A    between atoms: _278  and  _280
REMARK  117  A    between atoms: _280  and  _281
REMARK  118  A    between atoms: _280  and  _283
REMARK  119  A    between atoms: _283  and  _284
REMARK  120  A    between atoms: _287  and  _289
REMARK  121  A    between atoms: _289  and  _290
REMARK  122  A    between atoms: _289  and  _292
REMARK  123  A    between atoms: _292  and  _293
REMARK  124  A    between atoms: _296  and  _298
REMARK  125  A    between atoms: _298  and  _299
REMARK  126  A    between atoms: _298  and  _301
REMARK  127  A    between atoms: _301  and  _302
REMARK  128  A    between atoms: _302  and  _303
REMARK  129  A    between atoms: _303  and  _304
REMARK  130  A    between atoms: _313  and  _315
REMARK  131  A    between atoms: _315  and  _316
REMARK  132  A    between atoms: _315  and  _318
REMARK  133  A    between atoms: _318  and  _319
REMARK  134  A    between atoms: _323  and  _324
REMARK  135  A    between atoms: _329  and  _331
REMARK  136  A    between atoms: _331  and  _332
REMARK  137  A    between atoms: _331  and  _334
REMARK  138  A    between atoms: _334  and  _335
REMARK  139  A    between atoms: _335  and  _336
REMARK  140  A    between atoms: _336  and  _337
REMARK  141  A    between atoms: _346  and  _348
REMARK  142  A    between atoms: _348  and  _349
REMARK  143  A    between atoms: _348  and  _351
REMARK  144  A    between atoms: _351  and  _352
REMARK  145  A    between atoms: _352  and  _353
REMARK  146  A    between atoms: _356  and  _358
REMARK  147  A    between atoms: _358  and  _359
REMARK  148  A    between atoms: _358  and  _361
REMARK  149  A    between atoms: _364  and  _366
REMARK  150  A    between atoms: _366  and  _367
REMARK  151  A    between atoms: _366  and  _369
REMARK  152  A    between atoms: _369  and  _370
REMARK  153  A    between atoms: _375  and  _377
REMARK  154  A    between atoms: _377  and  _378
REMARK  155  A    between atoms: _377  and  _380
REMARK  156  A    between atoms: _380  and  _381
REMARK  157  A    between atoms: _383  and  _385
REMARK  158  A    between atoms: _385  and  _386
REMARK  159  A    between atoms: _385  and  _388
REMARK  160  A    between atoms: _388  and  _389
REMARK  161  A    between atoms: _399  and  _401
REMARK  162  A    between atoms: _401  and  _402
REMARK  163  A    between atoms: _401  and  _404
REMARK  164  A    between atoms: _404  and  _405
REMARK  165  A    between atoms: _408  and  _410
REMARK  166  A    between atoms: _410  and  _411
REMARK  167  A    between atoms: _413  and  _415
REMARK  168  A    between atoms: _415  and  _416
REMARK  169  A    between atoms: _415  and  _418
REMARK  170  A    between atoms: _418  and  _419
REMARK  171  A    between atoms: _424  and  _426
REMARK  172  A    between atoms: _426  and  _427
REMARK  173  A    between atoms: _426  and  _429
REMARK  174  A    between atoms: _429  and  _430
REMARK  175  A    between atoms: _433  and  _435
REMARK  176  A    between atoms: _435  and  _436
REMARK  177  A    between atoms: _435  and  _438
REMARK  178  A    between atoms: _438  and  _439
REMARK  179  A    between atoms: _442  and  _444
REMARK  180  A    between atoms: _444  and  _445
REMARK  181  A    between atoms: _444  and  _447
REMARK  182  A    between atoms: _447  and  _448
REMARK  183  A    between atoms: _448  and  _449
REMARK  184  A    between atoms: _451  and  _453
REMARK  185  A    between atoms: _453  and  _454
REMARK  186  A    between atoms: _453  and  _456
REMARK  187  A    between atoms: _456  and  _457
REMARK  188  A    between atoms: _463  and  _465
REMARK  189  A    between atoms: _465  and  _466
REMARK  190  A    between atoms: _470  and  _471
REMARK  191  A    between atoms: _476  and  _478
REMARK  192  A    between atoms: _478  and  _479
REMARK  193  A    between atoms: _478  and  _481
REMARK  194  A    between atoms: _481  and  _482
REMARK  195  A    between atoms: _485  and  _487
REMARK  196  A    between atoms: _487  and  _488
REMARK  197  A    between atoms: _487  and  _490
REMARK  198  A    between atoms: _490  and  _491
REMARK  199  A    between atoms: _501  and  _503
REMARK  200  A    between atoms: _503  and  _504
REMARK  201  A    between atoms: _503  and  _506
REMARK  202  A    between atoms: _508  and  _510
REMARK  203  A    between atoms: _510  and  _511
REMARK  204  A    between atoms: _510  and  _513
REMARK  205  A    between atoms: _513  and  _514
REMARK  206  A    between atoms: _514  and  _515
REMARK  207  A    between atoms: _518  and  _520
REMARK  208  A    between atoms: _520  and  _521
REMARK  209  A    between atoms: _520  and  _523
REMARK  210  A    between atoms: _523  and  _524
REMARK  211  A    between atoms: _527  and  _529
REMARK  212  A    between atoms: _529  and  _530
REMARK  213  A    between atoms: _529  and  _532
REMARK  214  A    between atoms: _532  and  _533
REMARK  215  A    between atoms: _538  and  _539
REMARK  216  A    between atoms: _541  and  _543
REMARK  217  A    between atoms: _543  and  _544
REMARK  218  A    between atoms: _546  and  _548
REMARK  219  A    between atoms: _548  and  _549
REMARK  220  A    between atoms: _552  and  _554
REMARK  221  A    between atoms: _554  and  _555
REMARK  222  A    between atoms: _554  and  _557
REMARK  223  A    between atoms: _559  and  _561
REMARK  224  A    between atoms: _561  and  _562
REMARK  225  A    between atoms: _561  and  _564
REMARK  226  A    between atoms: _564  and  _565
REMARK  227  A    between atoms: _570  and  _571
REMARK  228  A    between atoms: _573  and  _575
REMARK  229  A    between atoms: _575  and  _576
REMARK  230  A    between atoms: _575  and  _578
REMARK  231  A    between atoms: _578  and  _579
REMARK  232  A    between atoms: _584  and  _586
REMARK  233  A    between atoms: _586  and  _587
REMARK  234  A    between atoms: _586  and  _589
REMARK  235  A    between atoms: _589  and  _590
REMARK  236  A    between atoms: _596  and  _598
REMARK  237  A    between atoms: _598  and  _599
REMARK  238  A    between atoms: _602  and  _604
REMARK  239  A    between atoms: _604  and  _605
REMARK  240  A    between atoms: _607  and  _609
REMARK  241  A    between atoms: _609  and  _610
REMARK  242  A    between atoms: _609  and  _612
REMARK  243  A    between atoms: _612  and  _613
REMARK  244  A    between atoms: _618  and  _619
REMARK  245  A    between atoms: _621  and  _623
REMARK  246  A    between atoms: _623  and  _624
REMARK  247  A    between atoms: _623  and  _626
REMARK  248  A    between atoms: _626  and  _627
REMARK  249  A    between atoms: _629  and  _631
REMARK  250  A    between atoms: _631  and  _632
REMARK  251  A    between atoms: _634  and  _636
REMARK  252  A    between atoms: _636  and  _637
REMARK                            x       y       z     vdW  Elec       q    Type
REMARK                         _______ _______ _______ _____ _____    ______ ____
ROOT
ATOM      1  CA  ASP A   3      42.165   5.482 -10.116  0.00  0.00    +0.160 C 
ENDROOT
BRANCH   1   4
ATOM      2  C   GLY A   2      39.863   5.052  -9.454  0.00  0.00    +0.243 C 
ATOM      3  O   GLY A   2      39.824   6.066  -8.738  0.00  0.00    -0.273 OA
ATOM      4  N   ASP A   3      40.930   4.711 -10.163  0.00  0.00    -0.296 N 
ATOM      5  H   ASP A   3      40.884   3.868 -10.771  0.00  0.00    +0.150 HD
BRANCH   2   6
ATOM      6  CA  GLY A   2      38.653   4.150  -9.606  0.00  0.00    +0.176 C 
BRANCH   6   8
ATOM      7  C   CYS A   1      37.494   5.708 -11.006  0.00  0.00    +0.239 C 
ATOM      8  N   GLY A   2      37.483   4.933  -9.929  0.00  0.00    -0.296 N 
ATOM      9  H   GLY A   2      36.639   4.890  -9.323  0.00  0.00    +0.150 HD
ATOM     10  O   CYS A   1      38.426   5.698 -11.810  0.00  0.00    -0.274 OA
BRANCH   7  11
ATOM     11  CA  CYS A   1      36.293   6.626 -11.231  0.00  0.00    +0.156 C 
BRANCH  11  12
ATOM     12  N   CYS A   1      36.665   7.966 -10.791  0.00  0.00    -0.237 NA
ATOM     13  H   CYS A   1      37.586   8.335 -11.102  0.00  0.00    +0.142 HD
ENDBRANCH  11  12
BRANCH  11  14
ATOM     14  CB  CYS A   1      36.002   6.610 -12.733  0.00  0.00    +0.095 C 
ATOM     15  SG  CYS A   1      34.448   7.284 -13.177  0.00  0.00    -0.080 S 
ENDBRANCH  11  14
ENDBRANCH   7  11
ENDBRANCH   6   8
ENDBRANCH   2   6
ENDBRANCH   1   4
BRANCH   1  16
ATOM     16  C   ASP A   3      42.128   6.706 -11.039  0.00  0.00    +0.241 C 
ATOM     17  O   ASP A   3      43.106   7.437 -11.109  0.00  0.00    -0.273 OA
ATOM     18  N   ASP A   4      41.012   6.919 -11.744  0.00  0.00    -0.298 N 
ATOM     19  H   ASP A   4      40.210   6.267 -11.631  0.00  0.00    +0.150 HD
BRANCH  18  20
ATOM     20  CA  ASP A   4      40.889   8.044 -12.670  0.00  0.00    +0.148 C 
BRANCH  20  21
ATOM     21  C   ASP A   4      40.346   9.250 -11.927  0.00  0.00    +0.227 C 
ATOM     22  O   ASP A   4      39.307   9.167 -11.271  0.00  0.00    -0.286 OA
ENDBRANCH  20  21
BRANCH  20  23
ATOM     23  CB  ASP A   4      39.971   7.708 -13.850  0.00  0.00    +0.142 C 
BRANCH  23  24
ATOM     24  CG  ASP A   4      40.045   8.758 -14.953  0.00  0.00    +0.367 C 
ATOM     25  OD2 ASP A   4      39.367   9.818 -14.841  0.00  0.00    -0.246 OA
ATOM     26  OD1 ASP A   4      40.805   8.526 -15.929  0.00  0.00    -0.246 OA
ENDBRANCH  23  24
ENDBRANCH  20  23
ENDBRANCH  18  20
ENDBRANCH   1  16
BRANCH   1  27
ATOM     27  CB  ASP A   3      43.378   4.583 -10.427  0.00  0.00    +0.143 C 
BRANCH  27  28
ATOM     28  CG  ASP A   3      43.456   4.143 -11.887  0.00  0.00    +0.367 C 
ATOM     29  OD2 ASP A   3      44.576   3.812 -12.346  0.00  0.00    -0.246 OA
ATOM     30  OD1 ASP A   3      42.424   4.104 -12.577  0.00  0.00    -0.246 OA
ENDBRANCH  27  28
ENDBRANCH   1  27
TORSDOF 13
REMARK  Name = ../refined-set-2016/3hkw/3hkw_pocket.pdb
REMARK  252 active torsions:
REMARK  status: ('A' for Active; 'I' for Inactive)
REMARK    1  A    between atoms: _1  and  _3
REMARK    2  A    between atoms: _3  and  _4
REMARK    3  A    between atoms: _3  and  _6
REMARK    4  A    between atoms: _6  and  _7
REMARK    5  A    between atoms: _7  and  _8
REMARK    6  A    between atoms: _8  and  _9
REMARK    7  A    between atoms: _9  and  _10
REMARK    8  A    between atoms: _14  and  _16
REMARK    9  A    between atoms: _16  and  _17
REMARK   10  A    between atoms: _16  and  _19
REMARK   11  A    between atoms: _19  and  _20
REMARK   12  A    between atoms: _20  and  _21
REMARK   13  A    between atoms: _24  and  _26
REMARK   14  A    between atoms: _26  and  _27
REMARK   15  A    between atoms: _26  and  _29
REMARK   16  A    between atoms: _29  and  _30
REMARK   17  A    between atoms: _30  and  _31
REMARK   18  A    between atoms: _31  and  _32
REMARK   19  A    between atoms: _41  and  _43
REMARK   20  A    between atoms: _43  and  _44
REMARK   21  A    between atoms: _46  and  _48
REMARK   22  A    between atoms: _48  and  _49
REMARK   23  A    between atoms: _48  and  _51
REMARK   24  A    between atoms: _51  and  _52
REMARK   25  A    between atoms: _58  and  _60
REMARK   26  A    between atoms: _60  and  _61
REMARK   27  A    between atoms: _60  and  _63
REMARK   28  A    between atoms: _63  and  _64
REMARK   29  A    between atoms: _69  and  _70
REMARK   30  A    between atoms: _72  and  _74
REMARK   31  A    between atoms: _74  and  _75
REMARK   32  A    between atoms: _74  and  _77
REMARK   33  A    between atoms: _77  and  _78
REMARK   34  A    between atoms: _81  and  _82
REMARK   35  A    between atoms: _87  and  _89
REMARK   36  A    between atoms: _89  and  _90
REMARK   37  A    between atoms: _92  and  _94
REMARK   38  A    between atoms: _94  and  _95
REMARK   39  A    between atoms: _94  and  _97
REMARK   40  A    between atoms: _97  and  _98
REMARK   41  A    between atoms: _98  and  _99
REMARK   42  A    between atoms: _104  and  _106
REMARK   43  A    between atoms: _106  and  _107
REMARK   44  A    between atoms: _106  and  _109
REMARK   45  A    between atoms: _109  and  _110
REMARK   46  A    between atoms: _110  and  _111
REMARK   47  A    between atoms: _111  and  _112
REMARK   48  A    between atoms: _121  and  _123
REMARK   49  A    between atoms: _123  and  _124
REMARK   50  A    between atoms: _123  and  _126
REMARK   51  A    between atoms: _129  and  _131
REMARK   52  A    between atoms: _131  and  _132
REMARK   53  A    between atoms: _131  and  _134
REMARK   54  A    between atoms: _134  and  _135
REMARK   55  A    between atoms: _138  and  _140
REMARK   56  A    between atoms: _140  and  _141
REMARK   57  A    between atoms: _140  and  _143
REMARK   58  A    between atoms: _143  and  _144
REMARK   59  A    between atoms: _147  and  _149
REMARK   60  A    between atoms: _149  and  _150
REMARK   61  A    between atoms: _149  and  _152
REMARK   62  A    between atoms: _152  and  _153
REMARK   63  A    between atoms: _155  and  _157
REMARK   64  A    between atoms: _157  and  _158
REMARK   65  A    between atoms: _157  and  _160
REMARK   66  A    between atoms: _160  and  _161
REMARK   67  A    between atoms: _164  and  _166
REMARK   68  A    between atoms: _166  and  _167
REMARK   69  A    between atoms: _166  and  _169
REMARK   70  A    between atoms: _169  and  _170
REMARK   71  A    between atoms: _172  and  _174
REMARK   72  A    between atoms: _174  and  _175
REMARK   73  A    between atoms: _174  and  _177
REMARK   74  A    between atoms: _177  and  _178
REMARK   75  A    between atoms: _183  and  _185
REMARK   76  A    between atoms: _185  and  _186
REMARK   77  A    between atoms: _185  and  _188
REMARK   78  A    between atoms: _188  and  _189
REMARK   79  A    between atoms: _192  and  _194
REMARK   80  A    between atoms: _194  and  _195
REMARK   81  A    between atoms: _194  and  _197
REMARK   82  A    between atoms: _199  and  _201
REMARK   83  A    between atoms: _201  and  _202
REMARK   84  A    between atoms: _204  and  _206
REMARK   85  A    between atoms: _206  and  _207
REMARK   86  A    between atoms: _206  and  _209
REMARK   87  A    between atoms: _209  and  _210
REMARK   88  A    between atoms: _213  and  _215
REMARK   89  A    between atoms: _215  and  _216
REMARK   90  A    between atoms: _215  and  _218
REMARK   91  A    between atoms: _218  and  _219
REMARK   92  A    between atoms: _222  and  _224
REMARK   93  A    between atoms: _224  and  _225
REMARK   94  A    between atoms: _224  and  _227
REMARK   95  A    between atoms: _227  and  _228
REMARK   96  A    between atoms: _230  and  _232
REMARK   97  A    between atoms: _232  and  _233
REMARK   98  A    between atoms: _232  and  _235
REMARK   99  A    between atoms: _237  and  _239
REMARK  100  A    between atoms: _239  and  _240
REMARK  101  A    between atoms: _239  and  _242
REMARK  102  A    between atoms: _242  and  _243
REMARK  103  A    between atoms: _245  and  _247
REMARK  104  A    between atoms: _247  and  _248
REMARK  105  A    between atoms: _247  and  _250
REMARK  106  A    between atoms: _250  and  _251
REMARK  107  A    between atoms: _253  and  _255
REMARK  108  A    between atoms: _255  and  _256
REMARK  109  A    between atoms: _255  and  _258
REMARK  110  A    between atoms: _258  and  _259
REMARK  111  A    between atoms: _264  and  _266
REMARK  112  A    between atoms: _266  and  _267
REMARK  113  A    between atoms: _266  and  _269
REMARK  114  A    between atoms: _269  and  _270
REMARK  115  A    between atoms: _275  and  _276
REMARK  116  A    between atoms: _278  and  _280
REMARK  117  A    between atoms: _280  and  _281
REMARK  118  A    between atoms: _280  and  _283
REMARK  119  A    between atoms: _283  and  _284
REMARK  120  A    between atoms: _287  and  _289
REMARK  121  A    between atoms: _289  and  _290
REMARK  122  A    between atoms: _289  and  _292
REMARK  123  A    between atoms: _292  and  _293
REMARK  124  A    between atoms: _296  and  _298
REMARK  125  A    between atoms: _298  and  _299
REMARK  126  A    between atoms: _298  and  _301
REMARK  127  A    between atoms: _301  and  _302
REMARK  128  A    between atoms: _302  and  _303
REMARK  129  A    between atoms: _303  and  _304
REMARK  130  A    between atoms: _313  and  _315
REMARK  131  A    between atoms: _315  and  _316
REMARK  132  A    between atoms: _315  and  _318
REMARK  133  A    between atoms: _318  and  _319
REMARK  134  A    between atoms: _323  and  _324
REMARK  135  A    between atoms: _329  and  _331
REMARK  136  A    between atoms: _331  and  _332
REMARK  137  A    between atoms: _331  and  _334
REMARK  138  A    between atoms: _334  and  _335
REMARK  139  A    between atoms: _335  and  _336
REMARK  140  A    between atoms: _336  and  _337
REMARK  141  A    between atoms: _346  and  _348
REMARK  142  A    between atoms: _348  and  _349
REMARK  143  A    between atoms: _348  and  _351
REMARK  144  A    between atoms: _351  and  _352
REMARK  145  A    between atoms: _352  and  _353
REMARK  146  A    between atoms: _356  and  _358
REMARK  147  A    between atoms: _358  and  _359
REMARK  148  A    between atoms: _358  and  _361
REMARK  149  A    between atoms: _364  and  _366
REMARK  150  A    between atoms: _366  and  _367
REMARK  151  A    between atoms: _366  and  _369
REMARK  152  A    between atoms: _369  and  _370
REMARK  153  A    between atoms: _375  and  _377
REMARK  154  A    between atoms: _377  and  _378
REMARK  155  A    between atoms: _377  and  _380
REMARK  156  A    between atoms: _380  and  _381
REMARK  157  A    between atoms: _383  and  _385
REMARK  158  A    between atoms: _385  and  _386
REMARK  159  A    between atoms: _385  and  _388
REMARK  160  A    between atoms: _388  and  _389
REMARK  161  A    between atoms: _399  and  _401
REMARK  162  A    between atoms: _401  and  _402
REMARK  163  A    between atoms: _401  and  _404
REMARK  164  A    between atoms: _404  and  _405
REMARK  165  A    between atoms: _408  and  _410
REMARK  166  A    between atoms: _410  and  _411
REMARK  167  A    between atoms: _413  and  _415
REMARK  168  A    between atoms: _415  and  _416
REMARK  169  A    between atoms: _415  and  _418
REMARK  170  A    between atoms: _418  and  _419
REMARK  171  A    between atoms: _424  and  _426
REMARK  172  A    between atoms: _426  and  _427
REMARK  173  A    between atoms: _426  and  _429
REMARK  174  A    between atoms: _429  and  _430
REMARK  175  A    between atoms: _433  and  _435
REMARK  176  A    between atoms: _435  and  _436
REMARK  177  A    between atoms: _435  and  _438
REMARK  178  A    between atoms: _438  and  _439
REMARK  179  A    between atoms: _442  and  _444
REMARK  180  A    between atoms: _444  and  _445
REMARK  181  A    between atoms: _444  and  _447
REMARK  182  A    between atoms: _447  and  _448
REMARK  183  A    between atoms: _448  and  _449
REMARK  184  A    between atoms: _451  and  _453
REMARK  185  A    between atoms: _453  and  _454
REMARK  186  A    between atoms: _453  and  _456
REMARK  187  A    between atoms: _456  and  _457
REMARK  188  A    between atoms: _463  and  _465
REMARK  189  A    between atoms: _465  and  _466
REMARK  190  A    between atoms: _470  and  _471
REMARK  191  A    between atoms: _476  and  _478
REMARK  192  A    between atoms: _478  and  _479
REMARK  193  A    between atoms: _478  and  _481
REMARK  194  A    between atoms: _481  and  _482
REMARK  195  A    between atoms: _485  and  _487
REMARK  196  A    between atoms: _487  and  _488
REMARK  197  A    between atoms: _487  and  _490
REMARK  198  A    between atoms: _490  and  _491
REMARK  199  A    between atoms: _501  and  _503
REMARK  200  A    between atoms: _503  and  _504
REMARK  201  A    between atoms: _503  and  _506
REMARK  202  A    between atoms: _508  and  _510
REMARK  203  A    between atoms: _510  and  _511
REMARK  204  A    between atoms: _510  and  _513
REMARK  205  A    between atoms: _513  and  _514
REMARK  206  A    between atoms: _514  and  _515
REMARK  207  A    between atoms: _518  and  _520
REMARK  208  A    between atoms: _520  and  _521
REMARK  209  A    between atoms: _520  and  _523
REMARK  210  A    between atoms: _523  and  _524
REMARK  211  A    between atoms: _527  and  _529
REMARK  212  A    between atoms: _529  and  _530
REMARK  213  A    between atoms: _529  and  _532
REMARK  214  A    between atoms: _532  and  _533
REMARK  215  A    between atoms: _538  and  _539
REMARK  216  A    between atoms: _541  and  _543
REMARK  217  A    between atoms: _543  and  _544
REMARK  218  A    between atoms: _546  and  _548
REMARK  219  A    between atoms: _548  and  _549
REMARK  220  A    between atoms: _552  and  _554
REMARK  221  A    between atoms: _554  and  _555
REMARK  222  A    between atoms: _554  and  _557
REMARK  223  A    between atoms: _559  and  _561
REMARK  224  A    between atoms: _561  and  _562
REMARK  225  A    between atoms: _561  and  _564
REMARK  226  A    between atoms: _564  and  _565
REMARK  227  A    between atoms: _570  and  _571
REMARK  228  A    between atoms: _573  and  _575
REMARK  229  A    between atoms: _575  and  _576
REMARK  230  A    between atoms: _575  and  _578
REMARK  231  A    between atoms: _578  and  _579
REMARK  232  A    between atoms: _584  and  _586
REMARK  233  A    between atoms: _586  and  _587
REMARK  234  A    between atoms: _586  and  _589
REMARK  235  A    between atoms: _589  and  _590
REMARK  236  A    between atoms: _596  and  _598
REMARK  237  A    between atoms: _598  and  _599
REMARK  238  A    between atoms: _602  and  _604
REMARK  239  A    between atoms: _604  and  _605
REMARK  240  A    between atoms: _607  and  _609
REMARK  241  A    between atoms: _609  and  _610
REMARK  242  A    between atoms: _609  and  _612
REMARK  243  A    between atoms: _612  and  _613
REMARK  244  A    between atoms: _618  and  _619
REMARK  245  A    between atoms: _621  and  _623
REMARK  246  A    between atoms: _623  and  _624
REMARK  247  A    between atoms: _623  and  _626
REMARK  248  A    between atoms: _626  and  _627
REMARK  249  A    between atoms: _629  and  _631
REMARK  250  A    between atoms: _631  and  _632
REMARK  251  A    between atoms: _634  and  _636
REMARK  252  A    between atoms: _636  and  _637
REMARK                            x       y       z     vdW  Elec       q    Type
REMARK                         _______ _______ _______ _____ _____    ______ ____
ROOT
ATOM      1  CA  SER A   3      40.451   7.426 -21.958  0.00  0.00    +0.178 C 
ENDROOT
BRANCH   1   2
ATOM      2  C   SER A   3      39.776   8.437 -22.866  0.00  0.00    +0.243 C 
ATOM      3  N   SER A   4      38.899   9.270 -22.311  0.00  0.00    -0.295 N 
ATOM      4  H   SER A   4      38.893   9.382 -21.277  0.00  0.00    +0.150 HD
ATOM      5  O   SER A   3      40.095   8.484 -24.059  0.00  0.00    -0.273 OA
BRANCH   3   6
ATOM      6  CA  SER A   4      37.954  10.023 -23.104  0.00  0.00    +0.178 C 
BRANCH   6   7
ATOM      7  C   SER A   4      38.081  11.527 -22.934  0.00  0.00    +0.243 C 
ATOM      8  O   SER A   4      38.503  12.017 -21.894  0.00  0.00    -0.273 OA
ATOM      9  N   ASN A   5      37.697  12.255 -23.973  0.00  0.00    -0.298 N 
ATOM     10  H   ASN A   5      37.433  11.770 -24.854  0.00  0.00    +0.150 HD
BRANCH   9  11
ATOM     11  CA  ASN A   5      37.632  13.699 -23.925  0.00  0.00    +0.146 C 
BRANCH  11  12
ATOM     12  C   ASN A   5      36.291  14.210 -24.441  0.00  0.00    +0.227 C 
ATOM     13  O   ASN A   5      35.590  13.560 -25.243  0.00  0.00    -0.286 OA
ENDBRANCH  11  12
BRANCH  11  14
ATOM     14  CB  ASN A   5      38.770  14.308 -24.741  0.00  0.00    +0.112 C 
BRANCH  14  15
ATOM     15  CG  ASN A   5      38.649  14.008 -26.229  0.00  0.00    +0.222 C 
ATOM     16  OD1 ASN A   5      39.039  12.934 -26.692  0.00  0.00    -0.275 OA
ATOM     17  ND2 ASN A   5      38.098  14.964 -26.983  0.00  0.00    -0.329 N 
ATOM     18 HD21 ASN A   5      37.784  15.854 -26.547  0.00  0.00    +0.145 HD
ATOM     19 HD22 ASN A   5      37.983  14.818 -28.006  0.00  0.00    +0.145 HD
ENDBRANCH  14  15
ENDBRANCH  11  14
ENDBRANCH   9  11
ENDBRANCH   6   7
BRANCH   6  20
ATOM     20  CB  SER A   4      36.549   9.599 -22.718  0.00  0.00    +0.166 C 
BRANCH  20  21
ATOM     21  OG  SER A   4      36.417   8.194 -22.804  0.00  0.00    -0.380 OA
ATOM     22  H   SER A   4      37.064   7.765 -22.190  0.00  0.00    +0.211 HD
ENDBRANCH  20  21
ENDBRANCH   6  20
ENDBRANCH   3   6
ENDBRANCH   1   2
BRANCH   1  24
ATOM     23  C   CYS A   2      38.881   7.168 -20.052  0.00  0.00    +0.242 C 
ATOM     24  N   SER A   3      40.071   7.513 -20.542  0.00  0.00    -0.295 N 
ATOM     25  H   SER A   3      40.783   7.870 -19.873  0.00  0.00    +0.150 HD
ATOM     26  O   CYS A   2      37.948   6.763 -20.735  0.00  0.00    -0.273 OA
BRANCH  23  27
ATOM     27  CA  CYS A   2      38.739   7.328 -18.541  0.00  0.00    +0.160 C 
BRANCH  27  29
ATOM     28  C   SER A   1      38.910   9.754 -18.730  0.00  0.00    +0.241 C 
ATOM     29  N   CYS A   2      39.267   8.625 -18.120  0.00  0.00    -0.296 N 
ATOM     30  H   CYS A   2      39.937   8.667 -17.326  0.00  0.00    +0.150 HD
ATOM     31  O   SER A   1      38.034   9.809 -19.587  0.00  0.00    -0.274 OA
BRANCH  28  32
ATOM     32  CA  SER A   1      39.629  11.024 -18.330  0.00  0.00    +0.174 C 
BRANCH  32  33
ATOM     33  N   SER A   1      40.079  11.700 -19.529  0.00  0.00    -0.236 NA
ATOM     34  H   SER A   1      39.471  11.675 -20.372  0.00  0.00    +0.142 HD
ENDBRANCH  32  33
BRANCH  32  35
ATOM     35  CB  SER A   1      38.666  11.939 -17.599  0.00  0.00    +0.163 C 
BRANCH  35  36
ATOM     36  OG  SER A   1      38.056  11.267 -16.521  0.00  0.00    -0.380 OA
ATOM     37  H   SER A   1      38.752  10.964 -15.886  0.00  0.00    +0.211 HD
ENDBRANCH  35  36
ENDBRANCH  32  35
ENDBRANCH  28  32
ENDBRANCH  27  29
BRANCH  27  38
ATOM     38  CB  CYS A   2      37.291   7.148 -18.104  0.00  0.00    +0.098 C 
ATOM     39  SG  CYS A   2      37.105   7.091 -16.313  0.00  0.00    -0.080 S 
ENDBRANCH  27  38
ENDBRANCH  23  27
ENDBRANCH   1  24
BRANCH   1  40
ATOM     40  CB  SER A   3      40.170   6.031 -22.542  0.00  0.00    +0.166 C 
BRANCH  40  41
ATOM     41  OG  SER A   3      40.676   4.993 -21.739  0.00  0.00    -0.380 OA
ATOM     42  H   SER A   3      40.468   4.121 -22.159  0.00  0.00    +0.211 HD
ENDBRANCH  40  41
ENDBRANCH   1  40
TORSDOF 19
REMARK  Name = ../refined-set-2016/3hkw/3hkw_pocket.pdb
REMARK  252 active torsions:
REMARK  status: ('A' for Active; 'I' for Inactive)
REMARK    1  A    between atoms: _1  and  _3
REMARK    2  A    between atoms: _3  and  _4
REMARK    3  A    between atoms: _3  and  _6
REMARK    4  A    between atoms: _6  and  _7
REMARK    5  A    between atoms: _7  and  _8
REMARK    6  A    between atoms: _8  and  _9
REMARK    7  A    between atoms: _9  and  _10
REMARK    8  A    between atoms: _14  and  _16
REMARK    9  A    between atoms: _16  and  _17
REMARK   10  A    between atoms: _16  and  _19
REMARK   11  A    between atoms: _19  and  _20
REMARK   12  A    between atoms: _20  and  _21
REMARK   13  A    between atoms: _24  and  _26
REMARK   14  A    between atoms: _26  and  _27
REMARK   15  A    between atoms: _26  and  _29
REMARK   16  A    between atoms: _29  and  _30
REMARK   17  A    between atoms: _30  and  _31
REMARK   18  A    between atoms: _31  and  _32
REMARK   19  A    between atoms: _41  and  _43
REMARK   20  A    between atoms: _43  and  _44
REMARK   21  A    between atoms: _46  and  _48
REMARK   22  A    between atoms: _48  and  _49
REMARK   23  A    between atoms: _48  and  _51
REMARK   24  A    between atoms: _51  and  _52
REMARK   25  A    between atoms: _58  and  _60
REMARK   26  A    between atoms: _60  and  _61
REMARK   27  A    between atoms: _60  and  _63
REMARK   28  A    between atoms: _63  and  _64
REMARK   29  A    between atoms: _69  and  _70
REMARK   30  A    between atoms: _72  and  _74
REMARK   31  A    between atoms: _74  and  _75
REMARK   32  A    between atoms: _74  and  _77
REMARK   33  A    between atoms: _77  and  _78
REMARK   34  A    between atoms: _81  and  _82
REMARK   35  A    between atoms: _87  and  _89
REMARK   36  A    between atoms: _89  and  _90
REMARK   37  A    between atoms: _92  and  _94
REMARK   38  A    between atoms: _94  and  _95
REMARK   39  A    between atoms: _94  and  _97
REMARK   40  A    between atoms: _97  and  _98
REMARK   41  A    between atoms: _98  and  _99
REMARK   42  A    between atoms: _104  and  _106
REMARK   43  A    between atoms: _106  and  _107
REMARK   44  A    between atoms: _106  and  _109
REMARK   45  A    between atoms: _109  and  _110
REMARK   46  A    between atoms: _110  and  _111
REMARK   47  A    between atoms: _111  and  _112
REMARK   48  A    between atoms: _121  and  _123
REMARK   49  A    between atoms: _123  and  _124
REMARK   50  A    between atoms: _123  and  _126
REMARK   51  A    between atoms: _129  and  _131
REMARK   52  A    between atoms: _131  and  _132
REMARK   53  A    between atoms: _131  and  _134
REMARK   54  A    between atoms: _134  and  _135
REMARK   55  A    between atoms: _138  and  _140
REMARK   56  A    between atoms: _140  and  _141
REMARK   57  A    between atoms: _140  and  _143
REMARK   58  A    between atoms: _143  and  _144
REMARK   59  A    between atoms: _147  and  _149
REMARK   60  A    between atoms: _149  and  _150
REMARK   61  A    between atoms: _149  and  _152
REMARK   62  A    between atoms: _152  and  _153
REMARK   63  A    between atoms: _155  and  _157
REMARK   64  A    between atoms: _157  and  _158
REMARK   65  A    between atoms: _157  and  _160
REMARK   66  A    between atoms: _160  and  _161
REMARK   67  A    between atoms: _164  and  _166
REMARK   68  A    between atoms: _166  and  _167
REMARK   69  A    between atoms: _166  and  _169
REMARK   70  A    between atoms: _169  and  _170
REMARK   71  A    between atoms: _172  and  _174
REMARK   72  A    between atoms: _174  and  _175
REMARK   73  A    between atoms: _174  and  _177
REMARK   74  A    between atoms: _177  and  _178
REMARK   75  A    between atoms: _183  and  _185
REMARK   76  A    between atoms: _185  and  _186
REMARK   77  A    between atoms: _185  and  _188
REMARK   78  A    between atoms: _188  and  _189
REMARK   79  A    between atoms: _192  and  _194
REMARK   80  A    between atoms: _194  and  _195
REMARK   81  A    between atoms: _194  and  _197
REMARK   82  A    between atoms: _199  and  _201
REMARK   83  A    between atoms: _201  and  _202
REMARK   84  A    between atoms: _204  and  _206
REMARK   85  A    between atoms: _206  and  _207
REMARK   86  A    between atoms: _206  and  _209
REMARK   87  A    between atoms: _209  and  _210
REMARK   88  A    between atoms: _213  and  _215
REMARK   89  A    between atoms: _215  and  _216
REMARK   90  A    between atoms: _215  and  _218
REMARK   91  A    between atoms: _218  and  _219
REMARK   92  A    between atoms: _222  and  _224
REMARK   93  A    between atoms: _224  and  _225
REMARK   94  A    between atoms: _224  and  _227
REMARK   95  A    between atoms: _227  and  _228
REMARK   96  A    between atoms: _230  and  _232
REMARK   97  A    between atoms: _232  and  _233
REMARK   98  A    between atoms: _232  and  _235
REMARK   99  A    between atoms: _237  and  _239
REMARK  100  A    between atoms: _239  and  _240
REMARK  101  A    between atoms: _239  and  _242
REMARK  102  A    between atoms: _242  and  _243
REMARK  103  A    between atoms: _245  and  _247
REMARK  104  A    between atoms: _247  and  _248
REMARK  105  A    between atoms: _247  and  _250
REMARK  106  A    between atoms: _250  and  _251
REMARK  107  A    between atoms: _253  and  _255
REMARK  108  A    between atoms: _255  and  _256
REMARK  109  A    between atoms: _255  and  _258
REMARK  110  A    between atoms: _258  and  _259
REMARK  111  A    between atoms: _264  and  _266
REMARK  112  A    between atoms: _266  and  _267
REMARK  113  A    between atoms: _266  and  _269
REMARK  114  A    between atoms: _269  and  _270
REMARK  115  A    between atoms: _275  and  _276
REMARK  116  A    between atoms: _278  and  _280
REMARK  117  A    between atoms: _280  and  _281
REMARK  118  A    between atoms: _280  and  _283
REMARK  119  A    between atoms: _283  and  _284
REMARK  120  A    between atoms: _287  and  _289
REMARK  121  A    between atoms: _289  and  _290
REMARK  122  A    between atoms: _289  and  _292
REMARK  123  A    between atoms: _292  and  _293
REMARK  124  A    between atoms: _296  and  _298
REMARK  125  A    between atoms: _298  and  _299
REMARK  126  A    between atoms: _298  and  _301
REMARK  127  A    between atoms: _301  and  _302
REMARK  128  A    between atoms: _302  and  _303
REMARK  129  A    between atoms: _303  and  _304
REMARK  130  A    between atoms: _313  and  _315
REMARK  131  A    between atoms: _315  and  _316
REMARK  132  A    between atoms: _315  and  _318
REMARK  133  A    between atoms: _318  and  _319
REMARK  134  A    between atoms: _323  and  _324
REMARK  135  A    between atoms: _329  and  _331
REMARK  136  A    between atoms: _331  and  _332
REMARK  137  A    between atoms: _331  and  _334
REMARK  138  A    between atoms: _334  and  _335
REMARK  139  A    between atoms: _335  and  _336
REMARK  140  A    between atoms: _336  and  _337
REMARK  141  A    between atoms: _346  and  _348
REMARK  142  A    between atoms: _348  and  _349
REMARK  143  A    between atoms: _348  and  _351
REMARK  144  A    between atoms: _351  and  _352
REMARK  145  A    between atoms: _352  and  _353
REMARK  146  A    between atoms: _356  and  _358
REMARK  147  A    between atoms: _358  and  _359
REMARK  148  A    between atoms: _358  and  _361
REMARK  149  A    between atoms: _364  and  _366
REMARK  150  A    between atoms: _366  and  _367
REMARK  151  A    between atoms: _366  and  _369
REMARK  152  A    between atoms: _369  and  _370
REMARK  153  A    between atoms: _375  and  _377
REMARK  154  A    between atoms: _377  and  _378
REMARK  155  A    between atoms: _377  and  _380
REMARK  156  A    between atoms: _380  and  _381
REMARK  157  A    between atoms: _383  and  _385
REMARK  158  A    between atoms: _385  and  _386
REMARK  159  A    between atoms: _385  and  _388
REMARK  160  A    between atoms: _388  and  _389
REMARK  161  A    between atoms: _399  and  _401
REMARK  162  A    between atoms: _401  and  _402
REMARK  163  A    between atoms: _401  and  _404
REMARK  164  A    between atoms: _404  and  _405
REMARK  165  A    between atoms: _408  and  _410
REMARK  166  A    between atoms: _410  and  _411
REMARK  167  A    between atoms: _413  and  _415
REMARK  168  A    between atoms: _415  and  _416
REMARK  169  A    between atoms: _415  and  _418
REMARK  170  A    between atoms: _418  and  _419
REMARK  171  A    between atoms: _424  and  _426
REMARK  172  A    between atoms: _426  and  _427
REMARK  173  A    between atoms: _426  and  _429
REMARK  174  A    between atoms: _429  and  _430
REMARK  175  A    between atoms: _433  and  _435
REMARK  176  A    between atoms: _435  and  _436
REMARK  177  A    between atoms: _435  and  _438
REMARK  178  A    between atoms: _438  and  _439
REMARK  179  A    between atoms: _442  and  _444
REMARK  180  A    between atoms: _444  and  _445
REMARK  181  A    between atoms: _444  and  _447
REMARK  182  A    between atoms: _447  and  _448
REMARK  183  A    between atoms: _448  and  _449
REMARK  184  A    between atoms: _451  and  _453
REMARK  185  A    between atoms: _453  and  _454
REMARK  186  A    between atoms: _453  and  _456
REMARK  187  A    between atoms: _456  and  _457
REMARK  188  A    between atoms: _463  and  _465
REMARK  189  A    between atoms: _465  and  _466
REMARK  190  A    between atoms: _470  and  _471
REMARK  191  A    between atoms: _476  and  _478
REMARK  192  A    between atoms: _478  and  _479
REMARK  193  A    between atoms: _478  and  _481
REMARK  194  A    between atoms: _481  and  _482
REMARK  195  A    between atoms: _485  and  _487
REMARK  196  A    between atoms: _487  and  _488
REMARK  197  A    between atoms: _487  and  _490
REMARK  198  A    between atoms: _490  and  _491
REMARK  199  A    between atoms: _501  and  _503
REMARK  200  A    between atoms: _503  and  _504
REMARK  201  A    between atoms: _503  and  _506
REMARK  202  A    between atoms: _508  and  _510
REMARK  203  A    between atoms: _510  and  _511
REMARK  204  A    between atoms: _510  and  _513
REMARK  205  A    between atoms: _513  and  _514
REMARK  206  A    between atoms: _514  and  _515
REMARK  207  A    between atoms: _518  and  _520
REMARK  208  A    between atoms: _520  and  _521
REMARK  209  A    between atoms: _520  and  _523
REMARK  210  A    between atoms: _523  and  _524
REMARK  211  A    between atoms: _527  and  _529
REMARK  212  A    between atoms: _529  and  _530
REMARK  213  A    between atoms: _529  and  _532
REMARK  214  A    between atoms: _532  and  _533
REMARK  215  A    between atoms: _538  and  _539
REMARK  216  A    between atoms: _541  and  _543
REMARK  217  A    between atoms: _543  and  _544
REMARK  218  A    between atoms: _546  and  _548
REMARK  219  A    between atoms: _548  and  _549
REMARK  220  A    between atoms: _552  and  _554
REMARK  221  A    between atoms: _554  and  _555
REMARK  222  A    between atoms: _554  and  _557
REMARK  223  A    between atoms: _559  and  _561
REMARK  224  A    between atoms: _561  and  _562
REMARK  225  A    between atoms: _561  and  _564
REMARK  226  A    between atoms: _564  and  _565
REMARK  227  A    between atoms: _570  and  _571
REMARK  228  A    between atoms: _573  and  _575
REMARK  229  A    between atoms: _575  and  _576
REMARK  230  A    between atoms: _575  and  _578
REMARK  231  A    between atoms: _578  and  _579
REMARK  232  A    between atoms: _584  and  _586
REMARK  233  A    between atoms: _586  and  _587
REMARK  234  A    between atoms: _586  and  _589
REMARK  235  A    between atoms: _589  and  _590
REMARK  236  A    between atoms: _596  and  _598
REMARK  237  A    between atoms: _598  and  _599
REMARK  238  A    between atoms: _602  and  _604
REMARK  239  A    between atoms: _604  and  _605
REMARK  240  A    between atoms: _607  and  _609
REMARK  241  A    between atoms: _609  and  _610
REMARK  242  A    between atoms: _609  and  _612
REMARK  243  A    between atoms: _612  and  _613
REMARK  244  A    between atoms: _618  and  _619
REMARK  245  A    between atoms: _621  and  _623
REMARK  246  A    between atoms: _623  and  _624
REMARK  247  A    between atoms: _623  and  _626
REMARK  248  A    between atoms: _626  and  _627
REMARK  249  A    between atoms: _629  and  _631
REMARK  250  A    between atoms: _631  and  _632
REMARK  251  A    between atoms: _634  and  _636
REMARK  252  A    between atoms: _636  and  _637
REMARK                            x       y       z     vdW  Elec       q    Type
REMARK                         _______ _______ _______ _____ _____    ______ ____
ROOT
ATOM      1  C   LEU A   2      33.034  11.072 -26.166  0.00  0.00    +0.241 C 
ATOM      2  N   THR A   3      34.305  11.230 -26.489  0.00  0.00    -0.295 N 
ATOM      3  H   THR A   3      34.861  11.966 -26.009  0.00  0.00    +0.150 HD
ATOM      4  O   LEU A   2      32.292  10.253 -26.716  0.00  0.00    -0.273 OA
ENDROOT
BRANCH   2   5
ATOM      5  CA  THR A   3      34.947  10.407 -27.493  0.00  0.00    +0.176 C 
BRANCH   5   6
ATOM      6  C   THR A   3      36.325   9.970 -26.995  0.00  0.00    +0.243 C 
ATOM      7  O   THR A   3      36.738  10.302 -25.895  0.00  0.00    -0.273 OA
ATOM      8  N   ARG A   4      37.019   9.192 -27.802  0.00  0.00    -0.298 N 
ATOM      9  H   ARG A   4      36.598   8.896 -28.706  0.00  0.00    +0.150 HD
BRANCH   8  10
ATOM     10  CA  ARG A   4      38.356   8.738 -27.461  0.00  0.00    +0.137 C 
BRANCH  10  11
ATOM     11  C   ARG A   4      39.072   8.377 -28.746  0.00  0.00    +0.227 C 
ATOM     12  O   ARG A   4      38.443   8.263 -29.797  0.00  0.00    -0.286 OA
ENDBRANCH  10  11
BRANCH  10  13
ATOM     13  CB  ARG A   4      38.294   7.517 -26.545  0.00  0.00    +0.031 C 
BRANCH  13  14
ATOM     14  CG  ARG A   4      37.601   6.283 -27.153  0.00  0.00    +0.045 C 
BRANCH  14  15
ATOM     15  CD  ARG A   4      37.957   5.024 -26.382  0.00  0.00    +0.174 C 
BRANCH  15  16
ATOM     16  NE  ARG A   4      39.352   4.669 -26.631  0.00  0.00    -0.265 N 
ATOM     17  CZ  ARG A   4      40.146   3.993 -25.809  0.00  0.00    +0.342 C 
ATOM     18  NH2 ARG A   4      39.708   3.536 -24.659  0.00  0.00    -0.292 N 
ATOM     19 HH21 ARG A   4      40.348   3.009 -24.031  0.00  0.00    +0.255 HD
ATOM     20 HH22 ARG A   4      38.721   3.701 -24.376  0.00  0.00    +0.255 HD
ATOM     21  NH1 ARG A   4      41.386   3.753 -26.164  0.00  0.00    -0.292 N 
ATOM     22 HH11 ARG A   4      42.016   3.224 -25.527  0.00  0.00    +0.255 HD
ATOM     23 HH12 ARG A   4      41.739   4.091 -27.082  0.00  0.00    +0.255 HD
ATOM     24  HE  ARG A   4      39.762   4.974 -27.537  0.00  0.00    +0.259 HD
ENDBRANCH  15  16
ENDBRANCH  14  15
ENDBRANCH  13  14
ENDBRANCH  10  13
ENDBRANCH   8  10
ENDBRANCH   5   6
BRANCH   5  25
ATOM     25  CB  THR A   3      35.020  11.156 -28.832  0.00  0.00    +0.137 C 
ATOM     26  CG2 THR A   3      35.781  12.486 -28.691  0.00  0.00    +0.034 C 
BRANCH  25  27
ATOM     27  OG1 THR A   3      35.660  10.345 -29.824  0.00  0.00    -0.382 OA
ATOM     28  HG1 THR A   3      35.699  10.842 -30.680  0.00  0.00    +0.210 HD
ENDBRANCH  25  27
ENDBRANCH   5  25
ENDBRANCH   2   5
BRANCH   1  29
ATOM     29  CA  LEU A   2      32.531  11.980 -25.055  0.00  0.00    +0.149 C 
BRANCH  29  31
ATOM     30  C   TYR A   1      31.097  13.744 -25.948  0.00  0.00    +0.239 C 
ATOM     31  N   LEU A   2      31.235  12.538 -25.413  0.00  0.00    -0.297 N 
ATOM     32  H   LEU A   2      30.382  11.968 -25.242  0.00  0.00    +0.150 HD
ATOM     33  O   TYR A   1      32.045  14.507 -26.133  0.00  0.00    -0.274 OA
BRANCH  30  34
ATOM     34  CA  TYR A   1      29.672  14.162 -26.311  0.00  0.00    +0.149 C 
BRANCH  34  35
ATOM     35  N   TYR A   1      29.634  15.617 -26.449  0.00  0.00    -0.238 NA
ATOM     36  H   TYR A   1      30.509  16.125 -26.691  0.00  0.00    +0.142 HD
ENDBRANCH  34  35
BRANCH  34  37
ATOM     37  CB  TYR A   1      29.170  13.473 -27.597  0.00  0.00    +0.053 C 
BRANCH  37  38
ATOM     38  CG  TYR A   1      30.151  13.613 -28.718  0.00  0.00    -0.020 A 
ATOM     39  CD2 TYR A   1      31.026  12.576 -29.054  0.00  0.00    -0.001 A 
ATOM     40  CE2 TYR A   1      31.946  12.724 -30.054  0.00  0.00    +0.036 A 
ATOM     41  CZ  TYR A   1      32.026  13.921 -30.745  0.00  0.00    +0.134 A 
ATOM     42  CE1 TYR A   1      31.180  14.956 -30.430  0.00  0.00    +0.036 A 
ATOM     43  CD1 TYR A   1      30.251  14.808 -29.427  0.00  0.00    -0.001 A 
BRANCH  41  44
ATOM     44  OH  TYR A   1      32.978  14.066 -31.742  0.00  0.00    -0.506 OA
ATOM     45  HH  TYR A   1      32.906  14.971 -32.136  0.00  0.00    +0.292 HD
ENDBRANCH  41  44
ENDBRANCH  37  38
ENDBRANCH  34  37
ENDBRANCH  30  34
ENDBRANCH  29  31
BRANCH  29  46
ATOM     46  CB  LEU A   2      32.431  11.201 -23.745  0.00  0.00    +0.029 C 
BRANCH  46  47
ATOM     47  CG  LEU A   2      32.318  12.102 -22.519  0.00  0.00    +0.002 C 
ATOM     48  CD2 LEU A   2      31.713  11.359 -21.347  0.00  0.00    +0.000 C 
ATOM     49  CD1 LEU A   2      33.665  12.688 -22.123  0.00  0.00    +0.000 C 
ENDBRANCH  46  47
ENDBRANCH  29  46
ENDBRANCH   1  29
TORSDOF 19
REMARK  Name = ../refined-set-2016/3hkw/3hkw_pocket.pdb
REMARK  252 active torsions:
REMARK  status: ('A' for Active; 'I' for Inactive)
REMARK    1  A    between atoms: _1  and  _3
REMARK    2  A    between atoms: _3  and  _4
REMARK    3  A    between atoms: _3  and  _6
REMARK    4  A    between atoms: _6  and  _7
REMARK    5  A    between atoms: _7  and  _8
REMARK    6  A    between atoms: _8  and  _9
REMARK    7  A    between atoms: _9  and  _10
REMARK    8  A    between atoms: _14  and  _16
REMARK    9  A    between atoms: _16  and  _17
REMARK   10  A    between atoms: _16  and  _19
REMARK   11  A    between atoms: _19  and  _20
REMARK   12  A    between atoms: _20  and  _21
REMARK   13  A    between atoms: _24  and  _26
REMARK   14  A    between atoms: _26  and  _27
REMARK   15  A    between atoms: _26  and  _29
REMARK   16  A    between atoms: _29  and  _30
REMARK   17  A    between atoms: _30  and  _31
REMARK   18  A    between atoms: _31  and  _32
REMARK   19  A    between atoms: _41  and  _43
REMARK   20  A    between atoms: _43  and  _44
REMARK   21  A    between atoms: _46  and  _48
REMARK   22  A    between atoms: _48  and  _49
REMARK   23  A    between atoms: _48  and  _51
REMARK   24  A    between atoms: _51  and  _52
REMARK   25  A    between atoms: _58  and  _60
REMARK   26  A    between atoms: _60  and  _61
REMARK   27  A    between atoms: _60  and  _63
REMARK   28  A    between atoms: _63  and  _64
REMARK   29  A    between atoms: _69  and  _70
REMARK   30  A    between atoms: _72  and  _74
REMARK   31  A    between atoms: _74  and  _75
REMARK   32  A    between atoms: _74  and  _77
REMARK   33  A    between atoms: _77  and  _78
REMARK   34  A    between atoms: _81  and  _82
REMARK   35  A    between atoms: _87  and  _89
REMARK   36  A    between atoms: _89  and  _90
REMARK   37  A    between atoms: _92  and  _94
REMARK   38  A    between atoms: _94  and  _95
REMARK   39  A    between atoms: _94  and  _97
REMARK   40  A    between atoms: _97  and  _98
REMARK   41  A    between atoms: _98  and  _99
REMARK   42  A    between atoms: _104  and  _106
REMARK   43  A    between atoms: _106  and  _107
REMARK   44  A    between atoms: _106  and  _109
REMARK   45  A    between atoms: _109  and  _110
REMARK   46  A    between atoms: _110  and  _111
REMARK   47  A    between atoms: _111  and  _112
REMARK   48  A    between atoms: _121  and  _123
REMARK   49  A    between atoms: _123  and  _124
REMARK   50  A    between atoms: _123  and  _126
REMARK   51  A    between atoms: _129  and  _131
REMARK   52  A    between atoms: _131  and  _132
REMARK   53  A    between atoms: _131  and  _134
REMARK   54  A    between atoms: _134  and  _135
REMARK   55  A    between atoms: _138  and  _140
REMARK   56  A    between atoms: _140  and  _141
REMARK   57  A    between atoms: _140  and  _143
REMARK   58  A    between atoms: _143  and  _144
REMARK   59  A    between atoms: _147  and  _149
REMARK   60  A    between atoms: _149  and  _150
REMARK   61  A    between atoms: _149  and  _152
REMARK   62  A    between atoms: _152  and  _153
REMARK   63  A    between atoms: _155  and  _157
REMARK   64  A    between atoms: _157  and  _158
REMARK   65  A    between atoms: _157  and  _160
REMARK   66  A    between atoms: _160  and  _161
REMARK   67  A    between atoms: _164  and  _166
REMARK   68  A    between atoms: _166  and  _167
REMARK   69  A    between atoms: _166  and  _169
REMARK   70  A    between atoms: _169  and  _170
REMARK   71  A    between atoms: _172  and  _174
REMARK   72  A    between atoms: _174  and  _175
REMARK   73  A    between atoms: _174  and  _177
REMARK   74  A    between atoms: _177  and  _178
REMARK   75  A    between atoms: _183  and  _185
REMARK   76  A    between atoms: _185  and  _186
REMARK   77  A    between atoms: _185  and  _188
REMARK   78  A    between atoms: _188  and  _189
REMARK   79  A    between atoms: _192  and  _194
REMARK   80  A    between atoms: _194  and  _195
REMARK   81  A    between atoms: _194  and  _197
REMARK   82  A    between atoms: _199  and  _201
REMARK   83  A    between atoms: _201  and  _202
REMARK   84  A    between atoms: _204  and  _206
REMARK   85  A    between atoms: _206  and  _207
REMARK   86  A    between atoms: _206  and  _209
REMARK   87  A    between atoms: _209  and  _210
REMARK   88  A    between atoms: _213  and  _215
REMARK   89  A    between atoms: _215  and  _216
REMARK   90  A    between atoms: _215  and  _218
REMARK   91  A    between atoms: _218  and  _219
REMARK   92  A    between atoms: _222  and  _224
REMARK   93  A    between atoms: _224  and  _225
REMARK   94  A    between atoms: _224  and  _227
REMARK   95  A    between atoms: _227  and  _228
REMARK   96  A    between atoms: _230  and  _232
REMARK   97  A    between atoms: _232  and  _233
REMARK   98  A    between atoms: _232  and  _235
REMARK   99  A    between atoms: _237  and  _239
REMARK  100  A    between atoms: _239  and  _240
REMARK  101  A    between atoms: _239  and  _242
REMARK  102  A    between atoms: _242  and  _243
REMARK  103  A    between atoms: _245  and  _247
REMARK  104  A    between atoms: _247  and  _248
REMARK  105  A    between atoms: _247  and  _250
REMARK  106  A    between atoms: _250  and  _251
REMARK  107  A    between atoms: _253  and  _255
REMARK  108  A    between atoms: _255  and  _256
REMARK  109  A    between atoms: _255  and  _258
REMARK  110  A    between atoms: _258  and  _259
REMARK  111  A    between atoms: _264  and  _266
REMARK  112  A    between atoms: _266  and  _267
REMARK  113  A    between atoms: _266  and  _269
REMARK  114  A    between atoms: _269  and  _270
REMARK  115  A    between atoms: _275  and  _276
REMARK  116  A    between atoms: _278  and  _280
REMARK  117  A    between atoms: _280  and  _281
REMARK  118  A    between atoms: _280  and  _283
REMARK  119  A    between atoms: _283  and  _284
REMARK  120  A    between atoms: _287  and  _289
REMARK  121  A    between atoms: _289  and  _290
REMARK  122  A    between atoms: _289  and  _292
REMARK  123  A    between atoms: _292  and  _293
REMARK  124  A    between atoms: _296  and  _298
REMARK  125  A    between atoms: _298  and  _299
REMARK  126  A    between atoms: _298  and  _301
REMARK  127  A    between atoms: _301  and  _302
REMARK  128  A    between atoms: _302  and  _303
REMARK  129  A    between atoms: _303  and  _304
REMARK  130  A    between atoms: _313  and  _315
REMARK  131  A    between atoms: _315  and  _316
REMARK  132  A    between atoms: _315  and  _318
REMARK  133  A    between atoms: _318  and  _319
REMARK  134  A    between atoms: _323  and  _324
REMARK  135  A    between atoms: _329  and  _331
REMARK  136  A    between atoms: _331  and  _332
REMARK  137  A    between atoms: _331  and  _334
REMARK  138  A    between atoms: _334  and  _335
REMARK  139  A    between atoms: _335  and  _336
REMARK  140  A    between atoms: _336  and  _337
REMARK  141  A    between atoms: _346  and  _348
REMARK  142  A    between atoms: _348  and  _349
REMARK  143  A    between atoms: _348  and  _351
REMARK  144  A    between atoms: _351  and  _352
REMARK  145  A    between atoms: _352  and  _353
REMARK  146  A    between atoms: _356  and  _358
REMARK  147  A    between atoms: _358  and  _359
REMARK  148  A    between atoms: _358  and  _361
REMARK  149  A    between atoms: _364  and  _366
REMARK  150  A    between atoms: _366  and  _367
REMARK  151  A    between atoms: _366  and  _369
REMARK  152  A    between atoms: _369  and  _370
REMARK  153  A    between atoms: _375  and  _377
REMARK  154  A    between atoms: _377  and  _378
REMARK  155  A    between atoms: _377  and  _380
REMARK  156  A    between atoms: _380  and  _381
REMARK  157  A    between atoms: _383  and  _385
REMARK  158  A    between atoms: _385  and  _386
REMARK  159  A    between atoms: _385  and  _388
REMARK  160  A    between atoms: _388  and  _389
REMARK  161  A    between atoms: _399  and  _401
REMARK  162  A    between atoms: _401  and  _402
REMARK  163  A    between atoms: _401  and  _404
REMARK  164  A    between atoms: _404  and  _405
REMARK  165  A    between atoms: _408  and  _410
REMARK  166  A    between atoms: _410  and  _411
REMARK  167  A    between atoms: _413  and  _415
REMARK  168  A    between atoms: _415  and  _416
REMARK  169  A    between atoms: _415  and  _418
REMARK  170  A    between atoms: _418  and  _419
REMARK  171  A    between atoms: _424  and  _426
REMARK  172  A    between atoms: _426  and  _427
REMARK  173  A    between atoms: _426  and  _429
REMARK  174  A    between atoms: _429  and  _430
REMARK  175  A    between atoms: _433  and  _435
REMARK  176  A    between atoms: _435  and  _436
REMARK  177  A    between atoms: _435  and  _438
REMARK  178  A    between atoms: _438  and  _439
REMARK  179  A    between atoms: _442  and  _444
REMARK  180  A    between atoms: _444  and  _445
REMARK  181  A    between atoms: _444  and  _447
REMARK  182  A    between atoms: _447  and  _448
REMARK  183  A    between atoms: _448  and  _449
REMARK  184  A    between atoms: _451  and  _453
REMARK  185  A    between atoms: _453  and  _454
REMARK  186  A    between atoms: _453  and  _456
REMARK  187  A    between atoms: _456  and  _457
REMARK  188  A    between atoms: _463  and  _465
REMARK  189  A    between atoms: _465  and  _466
REMARK  190  A    between atoms: _470  and  _471
REMARK  191  A    between atoms: _476  and  _478
REMARK  192  A    between atoms: _478  and  _479
REMARK  193  A    between atoms: _478  and  _481
REMARK  194  A    between atoms: _481  and  _482
REMARK  195  A    between atoms: _485  and  _487
REMARK  196  A    between atoms: _487  and  _488
REMARK  197  A    between atoms: _487  and  _490
REMARK  198  A    between atoms: _490  and  _491
REMARK  199  A    between atoms: _501  and  _503
REMARK  200  A    between atoms: _503  and  _504
REMARK  201  A    between atoms: _503  and  _506
REMARK  202  A    between atoms: _508  and  _510
REMARK  203  A    between atoms: _510  and  _511
REMARK  204  A    between atoms: _510  and  _513
REMARK  205  A    between atoms: _513  and  _514
REMARK  206  A    between atoms: _514  and  _515
REMARK  207  A    between atoms: _518  and  _520
REMARK  208  A    between atoms: _520  and  _521
REMARK  209  A    between atoms: _520  and  _523
REMARK  210  A    between atoms: _523  and  _524
REMARK  211  A    between atoms: _527  and  _529
REMARK  212  A    between atoms: _529  and  _530
REMARK  213  A    between atoms: _529  and  _532
REMARK  214  A    between atoms: _532  and  _533
REMARK  215  A    between atoms: _538  and  _539
REMARK  216  A    between atoms: _541  and  _543
REMARK  217  A    between atoms: _543  and  _544
REMARK  218  A    between atoms: _546  and  _548
REMARK  219  A    between atoms: _548  and  _549
REMARK  220  A    between atoms: _552  and  _554
REMARK  221  A    between atoms: _554  and  _555
REMARK  222  A    between atoms: _554  and  _557
REMARK  223  A    between atoms: _559  and  _561
REMARK  224  A    between atoms: _561  and  _562
REMARK  225  A    between atoms: _561  and  _564
REMARK  226  A    between atoms: _564  and  _565
REMARK  227  A    between atoms: _570  and  _571
REMARK  228  A    between atoms: _573  and  _575
REMARK  229  A    between atoms: _575  and  _576
REMARK  230  A    between atoms: _575  and  _578
REMARK  231  A    between atoms: _578  and  _579
REMARK  232  A    between atoms: _584  and  _586
REMARK  233  A    between atoms: _586  and  _587
REMARK  234  A    between atoms: _586  and  _589
REMARK  235  A    between atoms: _589  and  _590
REMARK  236  A    between atoms: _596  and  _598
REMARK  237  A    between atoms: _598  and  _599
REMARK  238  A    between atoms: _602  and  _604
REMARK  239  A    between atoms: _604  and  _605
REMARK  240  A    between atoms: _607  and  _609
REMARK  241  A    between atoms: _609  and  _610
REMARK  242  A    between atoms: _609  and  _612
REMARK  243  A    between atoms: _612  and  _613
REMARK  244  A    between atoms: _618  and  _619
REMARK  245  A    between atoms: _621  and  _623
REMARK  246  A    between atoms: _623  and  _624
REMARK  247  A    between atoms: _623  and  _626
REMARK  248  A    between atoms: _626  and  _627
REMARK  249  A    between atoms: _629  and  _631
REMARK  250  A    between atoms: _631  and  _632
REMARK  251  A    between atoms: _634  and  _636
REMARK  252  A    between atoms: _636  and  _637
REMARK                            x       y       z     vdW  Elec       q    Type
REMARK                         _______ _______ _______ _____ _____    ______ ____
ROOT
ATOM      1  C   THR A   1      40.963  -0.301 -29.531  0.00  0.00    +0.244 C 
ATOM      2  N   PRO A   2      39.877   0.493 -29.487  0.00  0.00    -0.273 N 
ATOM      3  CD  PRO A   2      39.752   1.857 -28.945  0.00  0.00    +0.094 C 
ATOM      4  CG  PRO A   2      38.263   2.030 -28.788  0.00  0.00    +0.024 C 
ATOM      5  CB  PRO A   2      37.692   1.176 -29.930  0.00  0.00    +0.030 C 
ATOM      6  CA  PRO A   2      38.582  -0.057 -29.888  0.00  0.00    +0.140 C 
ATOM      7  O   THR A   1      40.892  -1.510 -29.738  0.00  0.00    -0.273 OA
ENDROOT
BRANCH   6   8
ATOM      8  C   PRO A   2      38.559  -0.811 -31.219  0.00  0.00    +0.227 C 
ATOM      9  O   PRO A   2      37.985  -1.899 -31.317  0.00  0.00    -0.286 OA
ENDBRANCH   6   8
BRANCH   1  10
ATOM     10  CA  THR A   1      42.333   0.334 -29.286  0.00  0.00    +0.172 C 
BRANCH  10  11
ATOM     11  N   THR A   1      42.525   1.543 -30.073  0.00  0.00    -0.236 NA
ATOM     12  H   THR A   1      42.658   2.462 -29.604  0.00  0.00    +0.142 HD
ENDBRANCH  10  11
BRANCH  10  13
ATOM     13  CB  THR A   1      42.641   0.555 -27.821  0.00  0.00    +0.135 C 
ATOM     14  CG2 THR A   1      42.450  -0.746 -27.031  0.00  0.00    +0.034 C 
BRANCH  13  15
ATOM     15  OG1 THR A   1      44.004   0.969 -27.722  0.00  0.00    -0.383 OA
ATOM     16  HG1 THR A   1      44.590   0.264 -28.095  0.00  0.00    +0.210 HD
ENDBRANCH  13  15
ENDBRANCH  10  13
ENDBRANCH   1  10
TORSDOF 5
REMARK  Name = ../refined-set-2016/3hkw/3hkw_pocket.pdb
REMARK  252 active torsions:
REMARK  status: ('A' for Active; 'I' for Inactive)
REMARK    1  A    between atoms: _1  and  _3
REMARK    2  A    between atoms: _3  and  _4
REMARK    3  A    between atoms: _3  and  _6
REMARK    4  A    between atoms: _6  and  _7
REMARK    5  A    between atoms: _7  and  _8
REMARK    6  A    between atoms: _8  and  _9
REMARK    7  A    between atoms: _9  and  _10
REMARK    8  A    between atoms: _14  and  _16
REMARK    9  A    between atoms: _16  and  _17
REMARK   10  A    between atoms: _16  and  _19
REMARK   11  A    between atoms: _19  and  _20
REMARK   12  A    between atoms: _20  and  _21
REMARK   13  A    between atoms: _24  and  _26
REMARK   14  A    between atoms: _26  and  _27
REMARK   15  A    between atoms: _26  and  _29
REMARK   16  A    between atoms: _29  and  _30
REMARK   17  A    between atoms: _30  and  _31
REMARK   18  A    between atoms: _31  and  _32
REMARK   19  A    between atoms: _41  and  _43
REMARK   20  A    between atoms: _43  and  _44
REMARK   21  A    between atoms: _46  and  _48
REMARK   22  A    between atoms: _48  and  _49
REMARK   23  A    between atoms: _48  and  _51
REMARK   24  A    between atoms: _51  and  _52
REMARK   25  A    between atoms: _58  and  _60
REMARK   26  A    between atoms: _60  and  _61
REMARK   27  A    between atoms: _60  and  _63
REMARK   28  A    between atoms: _63  and  _64
REMARK   29  A    between atoms: _69  and  _70
REMARK   30  A    between atoms: _72  and  _74
REMARK   31  A    between atoms: _74  and  _75
REMARK   32  A    between atoms: _74  and  _77
REMARK   33  A    between atoms: _77  and  _78
REMARK   34  A    between atoms: _81  and  _82
REMARK   35  A    between atoms: _87  and  _89
REMARK   36  A    between atoms: _89  and  _90
REMARK   37  A    between atoms: _92  and  _94
REMARK   38  A    between atoms: _94  and  _95
REMARK   39  A    between atoms: _94  and  _97
REMARK   40  A    between atoms: _97  and  _98
REMARK   41  A    between atoms: _98  and  _99
REMARK   42  A    between atoms: _104  and  _106
REMARK   43  A    between atoms: _106  and  _107
REMARK   44  A    between atoms: _106  and  _109
REMARK   45  A    between atoms: _109  and  _110
REMARK   46  A    between atoms: _110  and  _111
REMARK   47  A    between atoms: _111  and  _112
REMARK   48  A    between atoms: _121  and  _123
REMARK   49  A    between atoms: _123  and  _124
REMARK   50  A    between atoms: _123  and  _126
REMARK   51  A    between atoms: _129  and  _131
REMARK   52  A    between atoms: _131  and  _132
REMARK   53  A    between atoms: _131  and  _134
REMARK   54  A    between atoms: _134  and  _135
REMARK   55  A    between atoms: _138  and  _140
REMARK   56  A    between atoms: _140  and  _141
REMARK   57  A    between atoms: _140  and  _143
REMARK   58  A    between atoms: _143  and  _144
REMARK   59  A    between atoms: _147  and  _149
REMARK   60  A    between atoms: _149  and  _150
REMARK   61  A    between atoms: _149  and  _152
REMARK   62  A    between atoms: _152  and  _153
REMARK   63  A    between atoms: _155  and  _157
REMARK   64  A    between atoms: _157  and  _158
REMARK   65  A    between atoms: _157  and  _160
REMARK   66  A    between atoms: _160  and  _161
REMARK   67  A    between atoms: _164  and  _166
REMARK   68  A    between atoms: _166  and  _167
REMARK   69  A    between atoms: _166  and  _169
REMARK   70  A    between atoms: _169  and  _170
REMARK   71  A    between atoms: _172  and  _174
REMARK   72  A    between atoms: _174  and  _175
REMARK   73  A    between atoms: _174  and  _177
REMARK   74  A    between atoms: _177  and  _178
REMARK   75  A    between atoms: _183  and  _185
REMARK   76  A    between atoms: _185  and  _186
REMARK   77  A    between atoms: _185  and  _188
REMARK   78  A    between atoms: _188  and  _189
REMARK   79  A    between atoms: _192  and  _194
REMARK   80  A    between atoms: _194  and  _195
REMARK   81  A    between atoms: _194  and  _197
REMARK   82  A    between atoms: _199  and  _201
REMARK   83  A    between atoms: _201  and  _202
REMARK   84  A    between atoms: _204  and  _206
REMARK   85  A    between atoms: _206  and  _207
REMARK   86  A    between atoms: _206  and  _209
REMARK   87  A    between atoms: _209  and  _210
REMARK   88  A    between atoms: _213  and  _215
REMARK   89  A    between atoms: _215  and  _216
REMARK   90  A    between atoms: _215  and  _218
REMARK   91  A    between atoms: _218  and  _219
REMARK   92  A    between atoms: _222  and  _224
REMARK   93  A    between atoms: _224  and  _225
REMARK   94  A    between atoms: _224  and  _227
REMARK   95  A    between atoms: _227  and  _228
REMARK   96  A    between atoms: _230  and  _232
REMARK   97  A    between atoms: _232  and  _233
REMARK   98  A    between atoms: _232  and  _235
REMARK   99  A    between atoms: _237  and  _239
REMARK  100  A    between atoms: _239  and  _240
REMARK  101  A    between atoms: _239  and  _242
REMARK  102  A    between atoms: _242  and  _243
REMARK  103  A    between atoms: _245  and  _247
REMARK  104  A    between atoms: _247  and  _248
REMARK  105  A    between atoms: _247  and  _250
REMARK  106  A    between atoms: _250  and  _251
REMARK  107  A    between atoms: _253  and  _255
REMARK  108  A    between atoms: _255  and  _256
REMARK  109  A    between atoms: _255  and  _258
REMARK  110  A    between atoms: _258  and  _259
REMARK  111  A    between atoms: _264  and  _266
REMARK  112  A    between atoms: _266  and  _267
REMARK  113  A    between atoms: _266  and  _269
REMARK  114  A    between atoms: _269  and  _270
REMARK  115  A    between atoms: _275  and  _276
REMARK  116  A    between atoms: _278  and  _280
REMARK  117  A    between atoms: _280  and  _281
REMARK  118  A    between atoms: _280  and  _283
REMARK  119  A    between atoms: _283  and  _284
REMARK  120  A    between atoms: _287  and  _289
REMARK  121  A    between atoms: _289  and  _290
REMARK  122  A    between atoms: _289  and  _292
REMARK  123  A    between atoms: _292  and  _293
REMARK  124  A    between atoms: _296  and  _298
REMARK  125  A    between atoms: _298  and  _299
REMARK  126  A    between atoms: _298  and  _301
REMARK  127  A    between atoms: _301  and  _302
REMARK  128  A    between atoms: _302  and  _303
REMARK  129  A    between atoms: _303  and  _304
REMARK  130  A    between atoms: _313  and  _315
REMARK  131  A    between atoms: _315  and  _316
REMARK  132  A    between atoms: _315  and  _318
REMARK  133  A    between atoms: _318  and  _319
REMARK  134  A    between atoms: _323  and  _324
REMARK  135  A    between atoms: _329  and  _331
REMARK  136  A    between atoms: _331  and  _332
REMARK  137  A    between atoms: _331  and  _334
REMARK  138  A    between atoms: _334  and  _335
REMARK  139  A    between atoms: _335  and  _336
REMARK  140  A    between atoms: _336  and  _337
REMARK  141  A    between atoms: _346  and  _348
REMARK  142  A    between atoms: _348  and  _349
REMARK  143  A    between atoms: _348  and  _351
REMARK  144  A    between atoms: _351  and  _352
REMARK  145  A    between atoms: _352  and  _353
REMARK  146  A    between atoms: _356  and  _358
REMARK  147  A    between atoms: _358  and  _359
REMARK  148  A    between atoms: _358  and  _361
REMARK  149  A    between atoms: _364  and  _366
REMARK  150  A    between atoms: _366  and  _367
REMARK  151  A    between atoms: _366  and  _369
REMARK  152  A    between atoms: _369  and  _370
REMARK  153  A    between atoms: _375  and  _377
REMARK  154  A    between atoms: _377  and  _378
REMARK  155  A    between atoms: _377  and  _380
REMARK  156  A    between atoms: _380  and  _381
REMARK  157  A    between atoms: _383  and  _385
REMARK  158  A    between atoms: _385  and  _386
REMARK  159  A    between atoms: _385  and  _388
REMARK  160  A    between atoms: _388  and  _389
REMARK  161  A    between atoms: _399  and  _401
REMARK  162  A    between atoms: _401  and  _402
REMARK  163  A    between atoms: _401  and  _404
REMARK  164  A    between atoms: _404  and  _405
REMARK  165  A    between atoms: _408  and  _410
REMARK  166  A    between atoms: _410  and  _411
REMARK  167  A    between atoms: _413  and  _415
REMARK  168  A    between atoms: _415  and  _416
REMARK  169  A    between atoms: _415  and  _418
REMARK  170  A    between atoms: _418  and  _419
REMARK  171  A    between atoms: _424  and  _426
REMARK  172  A    between atoms: _426  and  _427
REMARK  173  A    between atoms: _426  and  _429
REMARK  174  A    between atoms: _429  and  _430
REMARK  175  A    between atoms: _433  and  _435
REMARK  176  A    between atoms: _435  and  _436
REMARK  177  A    between atoms: _435  and  _438
REMARK  178  A    between atoms: _438  and  _439
REMARK  179  A    between atoms: _442  and  _444
REMARK  180  A    between atoms: _444  and  _445
REMARK  181  A    between atoms: _444  and  _447
REMARK  182  A    between atoms: _447  and  _448
REMARK  183  A    between atoms: _448  and  _449
REMARK  184  A    between atoms: _451  and  _453
REMARK  185  A    between atoms: _453  and  _454
REMARK  186  A    between atoms: _453  and  _456
REMARK  187  A    between atoms: _456  and  _457
REMARK  188  A    between atoms: _463  and  _465
REMARK  189  A    between atoms: _465  and  _466
REMARK  190  A    between atoms: _470  and  _471
REMARK  191  A    between atoms: _476  and  _478
REMARK  192  A    between atoms: _478  and  _479
REMARK  193  A    between atoms: _478  and  _481
REMARK  194  A    between atoms: _481  and  _482
REMARK  195  A    between atoms: _485  and  _487
REMARK  196  A    between atoms: _487  and  _488
REMARK  197  A    between atoms: _487  and  _490
REMARK  198  A    between atoms: _490  and  _491
REMARK  199  A    between atoms: _501  and  _503
REMARK  200  A    between atoms: _503  and  _504
REMARK  201  A    between atoms: _503  and  _506
REMARK  202  A    between atoms: _508  and  _510
REMARK  203  A    between atoms: _510  and  _511
REMARK  204  A    between atoms: _510  and  _513
REMARK  205  A    between atoms: _513  and  _514
REMARK  206  A    between atoms: _514  and  _515
REMARK  207  A    between atoms: _518  and  _520
REMARK  208  A    between atoms: _520  and  _521
REMARK  209  A    between atoms: _520  and  _523
REMARK  210  A    between atoms: _523  and  _524
REMARK  211  A    between atoms: _527  and  _529
REMARK  212  A    between atoms: _529  and  _530
REMARK  213  A    between atoms: _529  and  _532
REMARK  214  A    between atoms: _532  and  _533
REMARK  215  A    between atoms: _538  and  _539
REMARK  216  A    between atoms: _541  and  _543
REMARK  217  A    between atoms: _543  and  _544
REMARK  218  A    between atoms: _546  and  _548
REMARK  219  A    between atoms: _548  and  _549
REMARK  220  A    between atoms: _552  and  _554
REMARK  221  A    between atoms: _554  and  _555
REMARK  222  A    between atoms: _554  and  _557
REMARK  223  A    between atoms: _559  and  _561
REMARK  224  A    between atoms: _561  and  _562
REMARK  225  A    between atoms: _561  and  _564
REMARK  226  A    between atoms: _564  and  _565
REMARK  227  A    between atoms: _570  and  _571
REMARK  228  A    between atoms: _573  and  _575
REMARK  229  A    between atoms: _575  and  _576
REMARK  230  A    between atoms: _575  and  _578
REMARK  231  A    between atoms: _578  and  _579
REMARK  232  A    between atoms: _584  and  _586
REMARK  233  A    between atoms: _586  and  _587
REMARK  234  A    between atoms: _586  and  _589
REMARK  235  A    between atoms: _589  and  _590
REMARK  236  A    between atoms: _596  and  _598
REMARK  237  A    between atoms: _598  and  _599
REMARK  238  A    between atoms: _602  and  _604
REMARK  239  A    between atoms: _604  and  _605
REMARK  240  A    between atoms: _607  and  _609
REMARK  241  A    between atoms: _609  and  _610
REMARK  242  A    between atoms: _609  and  _612
REMARK  243  A    between atoms: _612  and  _613
REMARK  244  A    between atoms: _618  and  _619
REMARK  245  A    between atoms: _621  and  _623
REMARK  246  A    between atoms: _623  and  _624
REMARK  247  A    between atoms: _623  and  _626
REMARK  248  A    between atoms: _626  and  _627
REMARK  249  A    between atoms: _629  and  _631
REMARK  250  A    between atoms: _631  and  _632
REMARK  251  A    between atoms: _634  and  _636
REMARK  252  A    between atoms: _636  and  _637
REMARK                            x       y       z     vdW  Elec       q    Type
REMARK                         _______ _______ _______ _____ _____    ______ ____
ROOT
ATOM      1  NE  ARG A   1      41.678  -3.774 -26.051  0.00  0.00    -0.265 N 
ATOM      2  CZ  ARG A   1      41.894  -3.291 -24.839  0.00  0.00    +0.342 C 
ATOM      3  NH2 ARG A   1      40.897  -2.849 -24.103  0.00  0.00    -0.292 N 
ATOM      4 HH21 ARG A   1      41.081  -2.472 -23.151  0.00  0.00    +0.255 HD
ATOM      5 HH22 ARG A   1      39.925  -2.877 -24.473  0.00  0.00    +0.255 HD
ATOM      6  NH1 ARG A   1      43.143  -3.248 -24.375  0.00  0.00    -0.292 N 
ATOM      7 HH11 ARG A   1      43.332  -2.871 -23.424  0.00  0.00    +0.255 HD
ATOM      8 HH12 ARG A   1      43.929  -3.591 -24.964  0.00  0.00    +0.255 HD
ATOM      9  HE  ARG A   1      42.509  -4.122 -26.571  0.00  0.00    +0.259 HD
ENDROOT
BRANCH   1  10
ATOM     10  CD  ARG A   1      40.401  -3.867 -26.727  0.00  0.00    +0.174 C 
BRANCH  10  11
ATOM     11  CG  ARG A   1      40.679  -4.418 -28.088  0.00  0.00    +0.045 C 
BRANCH  11  12
ATOM     12  CB  ARG A   1      39.485  -4.614 -28.948  0.00  0.00    +0.029 C 
BRANCH  12  13
ATOM     13  CA  ARG A   1      39.897  -5.144 -30.314  0.00  0.00    +0.133 C 
BRANCH  13  14
ATOM     14  N   ARG A   1      40.648  -4.128 -31.054  0.00  0.00    -0.239 NA
ATOM     15  H   ARG A   1      40.650  -3.147 -30.708  0.00  0.00    +0.142 HD
ENDBRANCH  13  14
BRANCH  13  16
ATOM     16  C   ARG A   1      38.694  -5.646 -31.094  0.00  0.00    +0.224 C 
ATOM     17  O   ARG A   1      38.410  -6.835 -31.093  0.00  0.00    -0.287 OA
ENDBRANCH  13  16
ENDBRANCH  12  13
ENDBRANCH  11  12
ENDBRANCH  10  11
ENDBRANCH   1  10
TORSDOF 6
REMARK  Name = ../refined-set-2016/3hkw/3hkw_pocket.pdb
REMARK  252 active torsions:
REMARK  status: ('A' for Active; 'I' for Inactive)
REMARK    1  A    between atoms: _1  and  _3
REMARK    2  A    between atoms: _3  and  _4
REMARK    3  A    between atoms: _3  and  _6
REMARK    4  A    between atoms: _6  and  _7
REMARK    5  A    between atoms: _7  and  _8
REMARK    6  A    between atoms: _8  and  _9
REMARK    7  A    between atoms: _9  and  _10
REMARK    8  A    between atoms: _14  and  _16
REMARK    9  A    between atoms: _16  and  _17
REMARK   10  A    between atoms: _16  and  _19
REMARK   11  A    between atoms: _19  and  _20
REMARK   12  A    between atoms: _20  and  _21
REMARK   13  A    between atoms: _24  and  _26
REMARK   14  A    between atoms: _26  and  _27
REMARK   15  A    between atoms: _26  and  _29
REMARK   16  A    between atoms: _29  and  _30
REMARK   17  A    between atoms: _30  and  _31
REMARK   18  A    between atoms: _31  and  _32
REMARK   19  A    between atoms: _41  and  _43
REMARK   20  A    between atoms: _43  and  _44
REMARK   21  A    between atoms: _46  and  _48
REMARK   22  A    between atoms: _48  and  _49
REMARK   23  A    between atoms: _48  and  _51
REMARK   24  A    between atoms: _51  and  _52
REMARK   25  A    between atoms: _58  and  _60
REMARK   26  A    between atoms: _60  and  _61
REMARK   27  A    between atoms: _60  and  _63
REMARK   28  A    between atoms: _63  and  _64
REMARK   29  A    between atoms: _69  and  _70
REMARK   30  A    between atoms: _72  and  _74
REMARK   31  A    between atoms: _74  and  _75
REMARK   32  A    between atoms: _74  and  _77
REMARK   33  A    between atoms: _77  and  _78
REMARK   34  A    between atoms: _81  and  _82
REMARK   35  A    between atoms: _87  and  _89
REMARK   36  A    between atoms: _89  and  _90
REMARK   37  A    between atoms: _92  and  _94
REMARK   38  A    between atoms: _94  and  _95
REMARK   39  A    between atoms: _94  and  _97
REMARK   40  A    between atoms: _97  and  _98
REMARK   41  A    between atoms: _98  and  _99
REMARK   42  A    between atoms: _104  and  _106
REMARK   43  A    between atoms: _106  and  _107
REMARK   44  A    between atoms: _106  and  _109
REMARK   45  A    between atoms: _109  and  _110
REMARK   46  A    between atoms: _110  and  _111
REMARK   47  A    between atoms: _111  and  _112
REMARK   48  A    between atoms: _121  and  _123
REMARK   49  A    between atoms: _123  and  _124
REMARK   50  A    between atoms: _123  and  _126
REMARK   51  A    between atoms: _129  and  _131
REMARK   52  A    between atoms: _131  and  _132
REMARK   53  A    between atoms: _131  and  _134
REMARK   54  A    between atoms: _134  and  _135
REMARK   55  A    between atoms: _138  and  _140
REMARK   56  A    between atoms: _140  and  _141
REMARK   57  A    between atoms: _140  and  _143
REMARK   58  A    between atoms: _143  and  _144
REMARK   59  A    between atoms: _147  and  _149
REMARK   60  A    between atoms: _149  and  _150
REMARK   61  A    between atoms: _149  and  _152
REMARK   62  A    between atoms: _152  and  _153
REMARK   63  A    between atoms: _155  and  _157
REMARK   64  A    between atoms: _157  and  _158
REMARK   65  A    between atoms: _157  and  _160
REMARK   66  A    between atoms: _160  and  _161
REMARK   67  A    between atoms: _164  and  _166
REMARK   68  A    between atoms: _166  and  _167
REMARK   69  A    between atoms: _166  and  _169
REMARK   70  A    between atoms: _169  and  _170
REMARK   71  A    between atoms: _172  and  _174
REMARK   72  A    between atoms: _174  and  _175
REMARK   73  A    between atoms: _174  and  _177
REMARK   74  A    between atoms: _177  and  _178
REMARK   75  A    between atoms: _183  and  _185
REMARK   76  A    between atoms: _185  and  _186
REMARK   77  A    between atoms: _185  and  _188
REMARK   78  A    between atoms: _188  and  _189
REMARK   79  A    between atoms: _192  and  _194
REMARK   80  A    between atoms: _194  and  _195
REMARK   81  A    between atoms: _194  and  _197
REMARK   82  A    between atoms: _199  and  _201
REMARK   83  A    between atoms: _201  and  _202
REMARK   84  A    between atoms: _204  and  _206
REMARK   85  A    between atoms: _206  and  _207
REMARK   86  A    between atoms: _206  and  _209
REMARK   87  A    between atoms: _209  and  _210
REMARK   88  A    between atoms: _213  and  _215
REMARK   89  A    between atoms: _215  and  _216
REMARK   90  A    between atoms: _215  and  _218
REMARK   91  A    between atoms: _218  and  _219
REMARK   92  A    between atoms: _222  and  _224
REMARK   93  A    between atoms: _224  and  _225
REMARK   94  A    between atoms: _224  and  _227
REMARK   95  A    between atoms: _227  and  _228
REMARK   96  A    between atoms: _230  and  _232
REMARK   97  A    between atoms: _232  and  _233
REMARK   98  A    between atoms: _232  and  _235
REMARK   99  A    between atoms: _237  and  _239
REMARK  100  A    between atoms: _239  and  _240
REMARK  101  A    between atoms: _239  and  _242
REMARK  102  A    between atoms: _242  and  _243
REMARK  103  A    between atoms: _245  and  _247
REMARK  104  A    between atoms: _247  and  _248
REMARK  105  A    between atoms: _247  and  _250
REMARK  106  A    between atoms: _250  and  _251
REMARK  107  A    between atoms: _253  and  _255
REMARK  108  A    between atoms: _255  and  _256
REMARK  109  A    between atoms: _255  and  _258
REMARK  110  A    between atoms: _258  and  _259
REMARK  111  A    between atoms: _264  and  _266
REMARK  112  A    between atoms: _266  and  _267
REMARK  113  A    between atoms: _266  and  _269
REMARK  114  A    between atoms: _269  and  _270
REMARK  115  A    between atoms: _275  and  _276
REMARK  116  A    between atoms: _278  and  _280
REMARK  117  A    between atoms: _280  and  _281
REMARK  118  A    between atoms: _280  and  _283
REMARK  119  A    between atoms: _283  and  _284
REMARK  120  A    between atoms: _287  and  _289
REMARK  121  A    between atoms: _289  and  _290
REMARK  122  A    between atoms: _289  and  _292
REMARK  123  A    between atoms: _292  and  _293
REMARK  124  A    between atoms: _296  and  _298
REMARK  125  A    between atoms: _298  and  _299
REMARK  126  A    between atoms: _298  and  _301
REMARK  127  A    between atoms: _301  and  _302
REMARK  128  A    between atoms: _302  and  _303
REMARK  129  A    between atoms: _303  and  _304
REMARK  130  A    between atoms: _313  and  _315
REMARK  131  A    between atoms: _315  and  _316
REMARK  132  A    between atoms: _315  and  _318
REMARK  133  A    between atoms: _318  and  _319
REMARK  134  A    between atoms: _323  and  _324
REMARK  135  A    between atoms: _329  and  _331
REMARK  136  A    between atoms: _331  and  _332
REMARK  137  A    between atoms: _331  and  _334
REMARK  138  A    between atoms: _334  and  _335
REMARK  139  A    between atoms: _335  and  _336
REMARK  140  A    between atoms: _336  and  _337
REMARK  141  A    between atoms: _346  and  _348
REMARK  142  A    between atoms: _348  and  _349
REMARK  143  A    between atoms: _348  and  _351
REMARK  144  A    between atoms: _351  and  _352
REMARK  145  A    between atoms: _352  and  _353
REMARK  146  A    between atoms: _356  and  _358
REMARK  147  A    between atoms: _358  and  _359
REMARK  148  A    between atoms: _358  and  _361
REMARK  149  A    between atoms: _364  and  _366
REMARK  150  A    between atoms: _366  and  _367
REMARK  151  A    between atoms: _366  and  _369
REMARK  152  A    between atoms: _369  and  _370
REMARK  153  A    between atoms: _375  and  _377
REMARK  154  A    between atoms: _377  and  _378
REMARK  155  A    between atoms: _377  and  _380
REMARK  156  A    between atoms: _380  and  _381
REMARK  157  A    between atoms: _383  and  _385
REMARK  158  A    between atoms: _385  and  _386
REMARK  159  A    between atoms: _385  and  _388
REMARK  160  A    between atoms: _388  and  _389
REMARK  161  A    between atoms: _399  and  _401
REMARK  162  A    between atoms: _401  and  _402
REMARK  163  A    between atoms: _401  and  _404
REMARK  164  A    between atoms: _404  and  _405
REMARK  165  A    between atoms: _408  and  _410
REMARK  166  A    between atoms: _410  and  _411
REMARK  167  A    between atoms: _413  and  _415
REMARK  168  A    between atoms: _415  and  _416
REMARK  169  A    between atoms: _415  and  _418
REMARK  170  A    between atoms: _418  and  _419
REMARK  171  A    between atoms: _424  and  _426
REMARK  172  A    between atoms: _426  and  _427
REMARK  173  A    between atoms: _426  and  _429
REMARK  174  A    between atoms: _429  and  _430
REMARK  175  A    between atoms: _433  and  _435
REMARK  176  A    between atoms: _435  and  _436
REMARK  177  A    between atoms: _435  and  _438
REMARK  178  A    between atoms: _438  and  _439
REMARK  179  A    between atoms: _442  and  _444
REMARK  180  A    between atoms: _444  and  _445
REMARK  181  A    between atoms: _444  and  _447
REMARK  182  A    between atoms: _447  and  _448
REMARK  183  A    between atoms: _448  and  _449
REMARK  184  A    between atoms: _451  and  _453
REMARK  185  A    between atoms: _453  and  _454
REMARK  186  A    between atoms: _453  and  _456
REMARK  187  A    between atoms: _456  and  _457
REMARK  188  A    between atoms: _463  and  _465
REMARK  189  A    between atoms: _465  and  _466
REMARK  190  A    between atoms: _470  and  _471
REMARK  191  A    between atoms: _476  and  _478
REMARK  192  A    between atoms: _478  and  _479
REMARK  193  A    between atoms: _478  and  _481
REMARK  194  A    between atoms: _481  and  _482
REMARK  195  A    between atoms: _485  and  _487
REMARK  196  A    between atoms: _487  and  _488
REMARK  197  A    between atoms: _487  and  _490
REMARK  198  A    between atoms: _490  and  _491
REMARK  199  A    between atoms: _501  and  _503
REMARK  200  A    between atoms: _503  and  _504
REMARK  201  A    between atoms: _503  and  _506
REMARK  202  A    between atoms: _508  and  _510
REMARK  203  A    between atoms: _510  and  _511
REMARK  204  A    between atoms: _510  and  _513
REMARK  205  A    between atoms: _513  and  _514
REMARK  206  A    between atoms: _514  and  _515
REMARK  207  A    between atoms: _518  and  _520
REMARK  208  A    between atoms: _520  and  _521
REMARK  209  A    between atoms: _520  and  _523
REMARK  210  A    between atoms: _523  and  _524
REMARK  211  A    between atoms: _527  and  _529
REMARK  212  A    between atoms: _529  and  _530
REMARK  213  A    between atoms: _529  and  _532
REMARK  214  A    between atoms: _532  and  _533
REMARK  215  A    between atoms: _538  and  _539
REMARK  216  A    between atoms: _541  and  _543
REMARK  217  A    between atoms: _543  and  _544
REMARK  218  A    between atoms: _546  and  _548
REMARK  219  A    between atoms: _548  and  _549
REMARK  220  A    between atoms: _552  and  _554
REMARK  221  A    between atoms: _554  and  _555
REMARK  222  A    between atoms: _554  and  _557
REMARK  223  A    between atoms: _559  and  _561
REMARK  224  A    between atoms: _561  and  _562
REMARK  225  A    between atoms: _561  and  _564
REMARK  226  A    between atoms: _564  and  _565
REMARK  227  A    between atoms: _570  and  _571
REMARK  228  A    between atoms: _573  and  _575
REMARK  229  A    between atoms: _575  and  _576
REMARK  230  A    between atoms: _575  and  _578
REMARK  231  A    between atoms: _578  and  _579
REMARK  232  A    between atoms: _584  and  _586
REMARK  233  A    between atoms: _586  and  _587
REMARK  234  A    between atoms: _586  and  _589
REMARK  235  A    between atoms: _589  and  _590
REMARK  236  A    between atoms: _596  and  _598
REMARK  237  A    between atoms: _598  and  _599
REMARK  238  A    between atoms: _602  and  _604
REMARK  239  A    between atoms: _604  and  _605
REMARK  240  A    between atoms: _607  and  _609
REMARK  241  A    between atoms: _609  and  _610
REMARK  242  A    between atoms: _609  and  _612
REMARK  243  A    between atoms: _612  and  _613
REMARK  244  A    between atoms: _618  and  _619
REMARK  245  A    between atoms: _621  and  _623
REMARK  246  A    between atoms: _623  and  _624
REMARK  247  A    between atoms: _623  and  _626
REMARK  248  A    between atoms: _626  and  _627
REMARK  249  A    between atoms: _629  and  _631
REMARK  250  A    between atoms: _631  and  _632
REMARK  251  A    between atoms: _634  and  _636
REMARK  252  A    between atoms: _636  and  _637
REMARK                            x       y       z     vdW  Elec       q    Type
REMARK                         _______ _______ _______ _____ _____    ______ ____
ROOT
ATOM      1  CA  GLU A   1      36.619 -10.041 -31.706  0.00  0.00    +0.134 C 
ENDROOT
BRANCH   1   2
ATOM      2  N   GLU A   1      37.903  -9.468 -32.098  0.00  0.00    -0.239 NA
ATOM      3  H   GLU A   1      38.058  -8.448 -31.965  0.00  0.00    +0.142 HD
ENDBRANCH   1   2
BRANCH   1   4
ATOM      4  C   GLU A   1      35.766 -10.504 -32.881  0.00  0.00    +0.224 C 
ATOM      5  O   GLU A   1      34.843 -11.265 -32.695  0.00  0.00    -0.287 OA
ENDBRANCH   1   4
BRANCH   1   6
ATOM      6  CB  GLU A   1      35.831  -9.049 -30.849  0.00  0.00    +0.037 C 
BRANCH   6   7
ATOM      7  CG  GLU A   1      36.511  -8.780 -29.522  0.00  0.00    +0.116 C 
BRANCH   7   8
ATOM      8  CD  GLU A   1      36.034  -7.537 -28.788  0.00  0.00    +0.365 C 
ATOM      9  OE2 GLU A   1      36.581  -7.289 -27.691  0.00  0.00    -0.246 OA
ATOM     10  OE1 GLU A   1      35.131  -6.818 -29.279  0.00  0.00    -0.246 OA
ENDBRANCH   7   8
ENDBRANCH   6   7
ENDBRANCH   1   6
TORSDOF 5
REMARK  Name = ../refined-set-2016/3hkw/3hkw_pocket.pdb
REMARK  252 active torsions:
REMARK  status: ('A' for Active; 'I' for Inactive)
REMARK    1  A    between atoms: _1  and  _3
REMARK    2  A    between atoms: _3  and  _4
REMARK    3  A    between atoms: _3  and  _6
REMARK    4  A    between atoms: _6  and  _7
REMARK    5  A    between atoms: _7  and  _8
REMARK    6  A    between atoms: _8  and  _9
REMARK    7  A    between atoms: _9  and  _10
REMARK    8  A    between atoms: _14  and  _16
REMARK    9  A    between atoms: _16  and  _17
REMARK   10  A    between atoms: _16  and  _19
REMARK   11  A    between atoms: _19  and  _20
REMARK   12  A    between atoms: _20  and  _21
REMARK   13  A    between atoms: _24  and  _26
REMARK   14  A    between atoms: _26  and  _27
REMARK   15  A    between atoms: _26  and  _29
REMARK   16  A    between atoms: _29  and  _30
REMARK   17  A    between atoms: _30  and  _31
REMARK   18  A    between atoms: _31  and  _32
REMARK   19  A    between atoms: _41  and  _43
REMARK   20  A    between atoms: _43  and  _44
REMARK   21  A    between atoms: _46  and  _48
REMARK   22  A    between atoms: _48  and  _49
REMARK   23  A    between atoms: _48  and  _51
REMARK   24  A    between atoms: _51  and  _52
REMARK   25  A    between atoms: _58  and  _60
REMARK   26  A    between atoms: _60  and  _61
REMARK   27  A    between atoms: _60  and  _63
REMARK   28  A    between atoms: _63  and  _64
REMARK   29  A    between atoms: _69  and  _70
REMARK   30  A    between atoms: _72  and  _74
REMARK   31  A    between atoms: _74  and  _75
REMARK   32  A    between atoms: _74  and  _77
REMARK   33  A    between atoms: _77  and  _78
REMARK   34  A    between atoms: _81  and  _82
REMARK   35  A    between atoms: _87  and  _89
REMARK   36  A    between atoms: _89  and  _90
REMARK   37  A    between atoms: _92  and  _94
REMARK   38  A    between atoms: _94  and  _95
REMARK   39  A    between atoms: _94  and  _97
REMARK   40  A    between atoms: _97  and  _98
REMARK   41  A    between atoms: _98  and  _99
REMARK   42  A    between atoms: _104  and  _106
REMARK   43  A    between atoms: _106  and  _107
REMARK   44  A    between atoms: _106  and  _109
REMARK   45  A    between atoms: _109  and  _110
REMARK   46  A    between atoms: _110  and  _111
REMARK   47  A    between atoms: _111  and  _112
REMARK   48  A    between atoms: _121  and  _123
REMARK   49  A    between atoms: _123  and  _124
REMARK   50  A    between atoms: _123  and  _126
REMARK   51  A    between atoms: _129  and  _131
REMARK   52  A    between atoms: _131  and  _132
REMARK   53  A    between atoms: _131  and  _134
REMARK   54  A    between atoms: _134  and  _135
REMARK   55  A    between atoms: _138  and  _140
REMARK   56  A    between atoms: _140  and  _141
REMARK   57  A    between atoms: _140  and  _143
REMARK   58  A    between atoms: _143  and  _144
REMARK   59  A    between atoms: _147  and  _149
REMARK   60  A    between atoms: _149  and  _150
REMARK   61  A    between atoms: _149  and  _152
REMARK   62  A    between atoms: _152  and  _153
REMARK   63  A    between atoms: _155  and  _157
REMARK   64  A    between atoms: _157  and  _158
REMARK   65  A    between atoms: _157  and  _160
REMARK   66  A    between atoms: _160  and  _161
REMARK   67  A    between atoms: _164  and  _166
REMARK   68  A    between atoms: _166  and  _167
REMARK   69  A    between atoms: _166  and  _169
REMARK   70  A    between atoms: _169  and  _170
REMARK   71  A    between atoms: _172  and  _174
REMARK   72  A    between atoms: _174  and  _175
REMARK   73  A    between atoms: _174  and  _177
REMARK   74  A    between atoms: _177  and  _178
REMARK   75  A    between atoms: _183  and  _185
REMARK   76  A    between atoms: _185  and  _186
REMARK   77  A    between atoms: _185  and  _188
REMARK   78  A    between atoms: _188  and  _189
REMARK   79  A    between atoms: _192  and  _194
REMARK   80  A    between atoms: _194  and  _195
REMARK   81  A    between atoms: _194  and  _197
REMARK   82  A    between atoms: _199  and  _201
REMARK   83  A    between atoms: _201  and  _202
REMARK   84  A    between atoms: _204  and  _206
REMARK   85  A    between atoms: _206  and  _207
REMARK   86  A    between atoms: _206  and  _209
REMARK   87  A    between atoms: _209  and  _210
REMARK   88  A    between atoms: _213  and  _215
REMARK   89  A    between atoms: _215  and  _216
REMARK   90  A    between atoms: _215  and  _218
REMARK   91  A    between atoms: _218  and  _219
REMARK   92  A    between atoms: _222  and  _224
REMARK   93  A    between atoms: _224  and  _225
REMARK   94  A    between atoms: _224  and  _227
REMARK   95  A    between atoms: _227  and  _228
REMARK   96  A    between atoms: _230  and  _232
REMARK   97  A    between atoms: _232  and  _233
REMARK   98  A    between atoms: _232  and  _235
REMARK   99  A    between atoms: _237  and  _239
REMARK  100  A    between atoms: _239  and  _240
REMARK  101  A    between atoms: _239  and  _242
REMARK  102  A    between atoms: _242  and  _243
REMARK  103  A    between atoms: _245  and  _247
REMARK  104  A    between atoms: _247  and  _248
REMARK  105  A    between atoms: _247  and  _250
REMARK  106  A    between atoms: _250  and  _251
REMARK  107  A    between atoms: _253  and  _255
REMARK  108  A    between atoms: _255  and  _256
REMARK  109  A    between atoms: _255  and  _258
REMARK  110  A    between atoms: _258  and  _259
REMARK  111  A    between atoms: _264  and  _266
REMARK  112  A    between atoms: _266  and  _267
REMARK  113  A    between atoms: _266  and  _269
REMARK  114  A    between atoms: _269  and  _270
REMARK  115  A    between atoms: _275  and  _276
REMARK  116  A    between atoms: _278  and  _280
REMARK  117  A    between atoms: _280  and  _281
REMARK  118  A    between atoms: _280  and  _283
REMARK  119  A    between atoms: _283  and  _284
REMARK  120  A    between atoms: _287  and  _289
REMARK  121  A    between atoms: _289  and  _290
REMARK  122  A    between atoms: _289  and  _292
REMARK  123  A    between atoms: _292  and  _293
REMARK  124  A    between atoms: _296  and  _298
REMARK  125  A    between atoms: _298  and  _299
REMARK  126  A    between atoms: _298  and  _301
REMARK  127  A    between atoms: _301  and  _302
REMARK  128  A    between atoms: _302  and  _303
REMARK  129  A    between atoms: _303  and  _304
REMARK  130  A    between atoms: _313  and  _315
REMARK  131  A    between atoms: _315  and  _316
REMARK  132  A    between atoms: _315  and  _318
REMARK  133  A    between atoms: _318  and  _319
REMARK  134  A    between atoms: _323  and  _324
REMARK  135  A    between atoms: _329  and  _331
REMARK  136  A    between atoms: _331  and  _332
REMARK  137  A    between atoms: _331  and  _334
REMARK  138  A    between atoms: _334  and  _335
REMARK  139  A    between atoms: _335  and  _336
REMARK  140  A    between atoms: _336  and  _337
REMARK  141  A    between atoms: _346  and  _348
REMARK  142  A    between atoms: _348  and  _349
REMARK  143  A    between atoms: _348  and  _351
REMARK  144  A    between atoms: _351  and  _352
REMARK  145  A    between atoms: _352  and  _353
REMARK  146  A    between atoms: _356  and  _358
REMARK  147  A    between atoms: _358  and  _359
REMARK  148  A    between atoms: _358  and  _361
REMARK  149  A    between atoms: _364  and  _366
REMARK  150  A    between atoms: _366  and  _367
REMARK  151  A    between atoms: _366  and  _369
REMARK  152  A    between atoms: _369  and  _370
REMARK  153  A    between atoms: _375  and  _377
REMARK  154  A    between atoms: _377  and  _378
REMARK  155  A    between atoms: _377  and  _380
REMARK  156  A    between atoms: _380  and  _381
REMARK  157  A    between atoms: _383  and  _385
REMARK  158  A    between atoms: _385  and  _386
REMARK  159  A    between atoms: _385  and  _388
REMARK  160  A    between atoms: _388  and  _389
REMARK  161  A    between atoms: _399  and  _401
REMARK  162  A    between atoms: _401  and  _402
REMARK  163  A    between atoms: _401  and  _404
REMARK  164  A    between atoms: _404  and  _405
REMARK  165  A    between atoms: _408  and  _410
REMARK  166  A    between atoms: _410  and  _411
REMARK  167  A    between atoms: _413  and  _415
REMARK  168  A    between atoms: _415  and  _416
REMARK  169  A    between atoms: _415  and  _418
REMARK  170  A    between atoms: _418  and  _419
REMARK  171  A    between atoms: _424  and  _426
REMARK  172  A    between atoms: _426  and  _427
REMARK  173  A    between atoms: _426  and  _429
REMARK  174  A    between atoms: _429  and  _430
REMARK  175  A    between atoms: _433  and  _435
REMARK  176  A    between atoms: _435  and  _436
REMARK  177  A    between atoms: _435  and  _438
REMARK  178  A    between atoms: _438  and  _439
REMARK  179  A    between atoms: _442  and  _444
REMARK  180  A    between atoms: _444  and  _445
REMARK  181  A    between atoms: _444  and  _447
REMARK  182  A    between atoms: _447  and  _448
REMARK  183  A    between atoms: _448  and  _449
REMARK  184  A    between atoms: _451  and  _453
REMARK  185  A    between atoms: _453  and  _454
REMARK  186  A    between atoms: _453  and  _456
REMARK  187  A    between atoms: _456  and  _457
REMARK  188  A    between atoms: _463  and  _465
REMARK  189  A    between atoms: _465  and  _466
REMARK  190  A    between atoms: _470  and  _471
REMARK  191  A    between atoms: _476  and  _478
REMARK  192  A    between atoms: _478  and  _479
REMARK  193  A    between atoms: _478  and  _481
REMARK  194  A    between atoms: _481  and  _482
REMARK  195  A    between atoms: _485  and  _487
REMARK  196  A    between atoms: _487  and  _488
REMARK  197  A    between atoms: _487  and  _490
REMARK  198  A    between atoms: _490  and  _491
REMARK  199  A    between atoms: _501  and  _503
REMARK  200  A    between atoms: _503  and  _504
REMARK  201  A    between atoms: _503  and  _506
REMARK  202  A    between atoms: _508  and  _510
REMARK  203  A    between atoms: _510  and  _511
REMARK  204  A    between atoms: _510  and  _513
REMARK  205  A    between atoms: _513  and  _514
REMARK  206  A    between atoms: _514  and  _515
REMARK  207  A    between atoms: _518  and  _520
REMARK  208  A    between atoms: _520  and  _521
REMARK  209  A    between atoms: _520  and  _523
REMARK  210  A    between atoms: _523  and  _524
REMARK  211  A    between atoms: _527  and  _529
REMARK  212  A    between atoms: _529  and  _530
REMARK  213  A    between atoms: _529  and  _532
REMARK  214  A    between atoms: _532  and  _533
REMARK  215  A    between atoms: _538  and  _539
REMARK  216  A    between atoms: _541  and  _543
REMARK  217  A    between atoms: _543  and  _544
REMARK  218  A    between atoms: _546  and  _548
REMARK  219  A    between atoms: _548  and  _549
REMARK  220  A    between atoms: _552  and  _554
REMARK  221  A    between atoms: _554  and  _555
REMARK  222  A    between atoms: _554  and  _557
REMARK  223  A    between atoms: _559  and  _561
REMARK  224  A    between atoms: _561  and  _562
REMARK  225  A    between atoms: _561  and  _564
REMARK  226  A    between atoms: _564  and  _565
REMARK  227  A    between atoms: _570  and  _571
REMARK  228  A    between atoms: _573  and  _575
REMARK  229  A    between atoms: _575  and  _576
REMARK  230  A    between atoms: _575  and  _578
REMARK  231  A    between atoms: _578  and  _579
REMARK  232  A    between atoms: _584  and  _586
REMARK  233  A    between atoms: _586  and  _587
REMARK  234  A    between atoms: _586  and  _589
REMARK  235  A    between atoms: _589  and  _590
REMARK  236  A    between atoms: _596  and  _598
REMARK  237  A    between atoms: _598  and  _599
REMARK  238  A    between atoms: _602  and  _604
REMARK  239  A    between atoms: _604  and  _605
REMARK  240  A    between atoms: _607  and  _609
REMARK  241  A    between atoms: _609  and  _610
REMARK  242  A    between atoms: _609  and  _612
REMARK  243  A    between atoms: _612  and  _613
REMARK  244  A    between atoms: _618  and  _619
REMARK  245  A    between atoms: _621  and  _623
REMARK  246  A    between atoms: _623  and  _624
REMARK  247  A    between atoms: _623  and  _626
REMARK  248  A    between atoms: _626  and  _627
REMARK  249  A    between atoms: _629  and  _631
REMARK  250  A    between atoms: _631  and  _632
REMARK  251  A    between atoms: _634  and  _636
REMARK  252  A    between atoms: _636  and  _637
REMARK                            x       y       z     vdW  Elec       q    Type
REMARK                         _______ _______ _______ _____ _____    ______ ____
ROOT
ATOM      1  CA  ASN A   7      32.194   0.671 -27.129  0.00  0.00    +0.158 C 
ENDROOT
BRANCH   1   2
ATOM      2  C   ASN A   7      31.085   1.351 -27.921  0.00  0.00    +0.241 C 
ATOM      3  O   ASN A   7      30.948   2.556 -27.859  0.00  0.00    -0.273 OA
ATOM      4  N   ILE A   8      30.275   0.577 -28.640  0.00  0.00    -0.297 N 
ATOM      5  H   ILE A   8      30.456  -0.445 -28.710  0.00  0.00    +0.150 HD
BRANCH   4   6
ATOM      6  CA  ILE A   8      29.129   1.169 -29.332  0.00  0.00    +0.149 C 
BRANCH   6   7
ATOM      7  C   ILE A   8      28.182   1.804 -28.335  0.00  0.00    +0.241 C 
ATOM      8  N   ILE A   9      27.948   1.107 -27.231  0.00  0.00    -0.297 N 
ATOM      9  H   ILE A   9      28.422   0.193 -27.083  0.00  0.00    +0.150 HD
ATOM     10  O   ILE A   8      27.694   2.921 -28.541  0.00  0.00    -0.273 OA
BRANCH   8  11
ATOM     11  CA  ILE A   9      27.027   1.621 -26.226  0.00  0.00    +0.149 C 
BRANCH  11  12
ATOM     12  C   ILE A   9      27.547   2.909 -25.593  0.00  0.00    +0.241 C 
ATOM     13  N   MET A  10      28.817   2.901 -25.179  0.00  0.00    -0.297 N 
ATOM     14  H   MET A  10      29.412   2.071 -25.377  0.00  0.00    +0.150 HD
ATOM     15  O   ILE A   9      26.811   3.905 -25.506  0.00  0.00    -0.273 OA
BRANCH  13  16
ATOM     16  CA  MET A  10      29.389   4.039 -24.451  0.00  0.00    +0.149 C 
BRANCH  16  17
ATOM     17  C   MET A  10      29.806   5.208 -25.332  0.00  0.00    +0.241 C 
ATOM     18  O   MET A  10      29.796   6.367 -24.872  0.00  0.00    -0.273 OA
ATOM     19  N   PHE A  11      30.124   4.912 -26.599  0.00  0.00    -0.297 N 
ATOM     20  H   PHE A  11      30.009   3.929 -26.918  0.00  0.00    +0.150 HD
BRANCH  19  21
ATOM     21  CA  PHE A  11      30.629   5.905 -27.568  0.00  0.00    +0.153 C 
BRANCH  21  22
ATOM     22  C   PHE A  11      29.715   6.059 -28.797  0.00  0.00    +0.241 C 
ATOM     23  N   ALA A  12      28.450   5.713 -28.621  0.00  0.00    -0.297 N 
ATOM     24  H   ALA A  12      28.146   5.381 -27.684  0.00  0.00    +0.150 HD
ATOM     25  O   PHE A  11      30.132   6.547 -29.845  0.00  0.00    -0.273 OA
BRANCH  23  26
ATOM     26  CA  ALA A  12      27.460   5.782 -29.705  0.00  0.00    +0.149 C 
ATOM     27  CB  ALA A  12      26.083   5.419 -29.184  0.00  0.00    +0.031 C 
BRANCH  26  28
ATOM     28  C   ALA A  12      27.386   7.099 -30.498  0.00  0.00    +0.244 C 
ATOM     29  N   PRO A  13      27.543   8.269 -29.844  0.00  0.00    -0.272 N 
ATOM     30  CD  PRO A  13      27.616   8.535 -28.398  0.00  0.00    +0.094 C 
ATOM     31  CG  PRO A  13      27.072   9.906 -28.283  0.00  0.00    +0.024 C 
ATOM     32  CB  PRO A  13      27.406  10.595 -29.513  0.00  0.00    +0.031 C 
ATOM     33  CA  PRO A  13      27.490   9.519 -30.603  0.00  0.00    +0.152 C 
ATOM     34  O   ALA A  12      27.125   7.050 -31.690  0.00  0.00    -0.273 OA
BRANCH  33  35
ATOM     35  C   PRO A  13      28.694   9.810 -31.479  0.00  0.00    +0.241 C 
ATOM     36  N   THR A  14      29.771   9.053 -31.298  0.00  0.00    -0.296 N 
ATOM     37  H   THR A  14      29.728   8.255 -30.633  0.00  0.00    +0.150 HD
ATOM     38  O   PRO A  13      28.647  10.732 -32.290  0.00  0.00    -0.273 OA
BRANCH  36  39
ATOM     39  CA  THR A  14      31.008   9.321 -32.014  0.00  0.00    +0.164 C 
BRANCH  39  40
ATOM     40  C   THR A  14      30.945   8.944 -33.484  0.00  0.00    +0.229 C 
ATOM     41  O   THR A  14      30.235   8.027 -33.882  0.00  0.00    -0.286 OA
ENDBRANCH  39  40
BRANCH  39  42
ATOM     42  CB  THR A  14      32.228   8.601 -31.378  0.00  0.00    +0.136 C 
ATOM     43  CG2 THR A  14      32.313   8.905 -29.889  0.00  0.00    +0.034 C 
BRANCH  42  44
ATOM     44  OG1 THR A  14      32.147   7.189 -31.593  0.00  0.00    -0.382 OA
ATOM     45  HG1 THR A  14      31.317   6.841 -31.180  0.00  0.00    +0.210 HD
ENDBRANCH  42  44
ENDBRANCH  39  42
ENDBRANCH  36  39
ENDBRANCH  33  35
ENDBRANCH  26  28
ENDBRANCH  23  26
ENDBRANCH  21  22
BRANCH  21  46
ATOM     46  CB  PHE A  11      32.062   5.556 -27.999  0.00  0.00    +0.055 C 
BRANCH  46  47
ATOM     47  CG  PHE A  11      33.055   5.688 -26.885  0.00  0.00    -0.020 A 
ATOM     48  CD2 PHE A  11      33.578   4.568 -26.264  0.00  0.00    -0.004 A 
ATOM     49  CE2 PHE A  11      34.488   4.706 -25.193  0.00  0.00    -0.000 A 
ATOM     50  CZ  PHE A  11      34.826   5.968 -24.729  0.00  0.00    -0.000 A 
ATOM     51  CE1 PHE A  11      34.270   7.098 -25.336  0.00  0.00    -0.000 A 
ATOM     52  CD1 PHE A  11      33.388   6.945 -26.401  0.00  0.00    -0.004 A 
ENDBRANCH  46  47
ENDBRANCH  21  46
ENDBRANCH  19  21
ENDBRANCH  16  17
BRANCH  16  53
ATOM     53  CB  MET A  10      30.521   3.560 -23.556  0.00  0.00    +0.041 C 
BRANCH  53  54
ATOM     54  CG  MET A  10      30.029   2.484 -22.566  0.00  0.00    +0.060 C 
BRANCH  54  55
ATOM     55  SD  MET A  10      28.879   3.099 -21.325  0.00  0.00    -0.139 S 
ATOM     56  CE  MET A  10      30.077   3.837 -20.225  0.00  0.00    +0.069 C 
ENDBRANCH  54  55
ENDBRANCH  53  54
ENDBRANCH  16  53
ENDBRANCH  13  16
ENDBRANCH  11  12
BRANCH  11  57
ATOM     57  CB  ILE A   9      26.720   0.536 -25.167  0.00  0.00    +0.027 C 
ATOM     58  CG2 ILE A   9      26.028   1.126 -23.915  0.00  0.00    +0.002 C 
BRANCH  57  59
ATOM     59  CG1 ILE A   9      25.826  -0.529 -25.798  0.00  0.00    +0.002 C 
ATOM     60  CD1 ILE A   9      25.718  -1.792 -25.002  0.00  0.00    +0.000 C 
ENDBRANCH  57  59
ENDBRANCH  11  57
ENDBRANCH   8  11
ENDBRANCH   6   7
BRANCH   6  61
ATOM     61  CB  ILE A   8      28.360   0.154 -30.190  0.00  0.00    +0.027 C 
ATOM     62  CG2 ILE A   8      27.028   0.765 -30.658  0.00  0.00    +0.002 C 
BRANCH  61  63
ATOM     63  CG1 ILE A   8      29.239  -0.263 -31.382  0.00  0.00    +0.002 C 
ATOM     64  CD1 ILE A   8      28.618  -1.346 -32.252  0.00  0.00    +0.000 C 
ENDBRANCH  61  63
ENDBRANCH   6  61
ENDBRANCH   4   6
ENDBRANCH   1   2
BRANCH   1  67
ATOM     65  C   GLY A   6      30.847  -0.551 -25.513  0.00  0.00    +0.243 C 
ATOM     66  O   GLY A   6      30.361   0.486 -25.093  0.00  0.00    -0.273 OA
ATOM     67  N   ASN A   7      31.735  -0.570 -26.506  0.00  0.00    -0.297 N 
ATOM     68  H   ASN A   7      32.107  -1.481 -26.843  0.00  0.00    +0.150 HD
BRANCH  65  69
ATOM     69  CA  GLY A   6      30.440  -1.904 -24.931  0.00  0.00    +0.176 C 
BRANCH  69  71
ATOM     70  C   LEU A   5      29.407  -2.765 -26.962  0.00  0.00    +0.241 C 
ATOM     71  N   GLY A   6      30.279  -2.914 -25.965  0.00  0.00    -0.295 N 
ATOM     72  H   GLY A   6      30.860  -3.776 -25.925  0.00  0.00    +0.150 HD
ATOM     73  O   LEU A   5      28.612  -1.833 -27.014  0.00  0.00    -0.273 OA
BRANCH  70  74
ATOM     74  CA  LEU A   5      29.452  -3.810 -28.081  0.00  0.00    +0.149 C 
BRANCH  74  76
ATOM     75  C   TRP A   4      31.579  -3.255 -29.102  0.00  0.00    +0.241 C 
ATOM     76  N   LEU A   5      30.828  -4.127 -28.441  0.00  0.00    -0.297 N 
ATOM     77  H   LEU A   5      31.227  -5.050 -28.176  0.00  0.00    +0.150 HD
ATOM     78  O   TRP A   4      31.186  -2.141 -29.401  0.00  0.00    -0.273 OA
BRANCH  75  79
ATOM     79  CA  TRP A   4      32.989  -3.703 -29.456  0.00  0.00    +0.153 C 
BRANCH  79  82
ATOM     80  C   SER A   3      33.750  -3.933 -27.182  0.00  0.00    +0.243 C 
ATOM     81  O   SER A   3      33.341  -2.800 -26.925  0.00  0.00    -0.273 OA
ATOM     82  N   TRP A   4      33.598  -4.484 -28.388  0.00  0.00    -0.297 N 
ATOM     83  H   TRP A   4      33.911  -5.460 -28.563  0.00  0.00    +0.150 HD
BRANCH  80  84
ATOM     84  CA  SER A   3      34.447  -4.770 -26.117  0.00  0.00    +0.178 C 
BRANCH  84  87
ATOM     85  C   ASN A   2      33.003  -6.716 -26.258  0.00  0.00    +0.241 C 
ATOM     86  O   ASN A   2      32.009  -6.038 -26.004  0.00  0.00    -0.273 OA
ATOM     87  N   SER A   3      34.229  -6.200 -26.332  0.00  0.00    -0.295 N 
ATOM     88  H   SER A   3      35.037  -6.819 -26.544  0.00  0.00    +0.150 HD
BRANCH  85  89
ATOM     89  CA  ASN A   2      32.870  -8.201 -26.533  0.00  0.00    +0.158 C 
BRANCH  89  92
ATOM     90  C   VAL A   1      33.584  -9.677 -24.741  0.00  0.00    +0.238 C 
ATOM     91  O   VAL A   1      34.752  -9.689 -25.127  0.00  0.00    -0.274 OA
ATOM     92  N   ASN A   2      32.645  -8.946 -25.312  0.00  0.00    -0.297 N 
ATOM     93  H   ASN A   2      31.706  -8.903 -24.867  0.00  0.00    +0.150 HD
BRANCH  90  94
ATOM     94  CA  VAL A   1      33.127 -10.515 -23.564  0.00  0.00    +0.145 C 
BRANCH  94  95
ATOM     95  CB  VAL A   1      33.571  -9.855 -22.236  0.00  0.00    +0.025 C 
ATOM     96  CG2 VAL A   1      33.321 -10.795 -21.081  0.00  0.00    +0.002 C 
ATOM     97  CG1 VAL A   1      32.839  -8.557 -21.999  0.00  0.00    +0.002 C 
ENDBRANCH  94  95
BRANCH  94  98
ATOM     98  N   VAL A   1      33.704 -11.840 -23.702  0.00  0.00    -0.238 NA
ATOM     99  H   VAL A   1      34.728 -11.921 -23.866  0.00  0.00    +0.142 HD
ENDBRANCH  94  98
ENDBRANCH  90  94
ENDBRANCH  89  92
BRANCH  89 100
ATOM    100  CB  ASN A   2      31.702  -8.435 -27.469  0.00  0.00    +0.114 C 
BRANCH 100 101
ATOM    101  CG  ASN A   2      31.659  -9.858 -27.980  0.00  0.00    +0.222 C 
ATOM    102  ND2 ASN A   2      30.807 -10.680 -27.375  0.00  0.00    -0.329 N 
ATOM    103 HD21 ASN A   2      30.202 -10.328 -26.605  0.00  0.00    +0.145 HD
ATOM    104 HD22 ASN A   2      30.745 -11.675 -27.671  0.00  0.00    +0.145 HD
ATOM    105  OD1 ASN A   2      32.396 -10.218 -28.893  0.00  0.00    -0.275 OA
ENDBRANCH 100 101
ENDBRANCH  89 100
ENDBRANCH  85  89
ENDBRANCH  84  87
BRANCH  84 106
ATOM    106  CB  SER A   3      35.935  -4.438 -26.111  0.00  0.00    +0.166 C 
BRANCH 106 107
ATOM    107  OG  SER A   3      36.513  -4.640 -27.383  0.00  0.00    -0.380 OA
ATOM    108  H   SER A   3      36.403  -5.588 -27.647  0.00  0.00    +0.211 HD
ENDBRANCH 106 107
ENDBRANCH  84 106
ENDBRANCH  80  84
ENDBRANCH  79  82
BRANCH  79 109
ATOM    109  CB  TRP A   4      32.996  -4.474 -30.775  0.00  0.00    +0.057 C 
BRANCH 109 110
ATOM    110  CG  TRP A   4      32.105  -5.685 -30.867  0.00  0.00    -0.002 A 
ATOM    111  CD1 TRP A   4      32.479  -7.001 -30.727  0.00  0.00    +0.068 A 
ATOM    112  NE1 TRP A   4      31.409  -7.826 -30.956  0.00  0.00    -0.352 N 
ATOM    113  HE1 TRP A   4      31.429  -8.865 -30.917  0.00  0.00    +0.166 HD
ATOM    114  CE2 TRP A   4      30.308  -7.061 -31.245  0.00  0.00    +0.056 A 
ATOM    115  CZ2 TRP A   4      28.991  -7.444 -31.520  0.00  0.00    +0.017 A 
ATOM    116  CH2 TRP A   4      28.090  -6.453 -31.792  0.00  0.00    +0.001 A 
ATOM    117  CZ3 TRP A   4      28.457  -5.098 -31.759  0.00  0.00    +0.000 A 
ATOM    118  CE3 TRP A   4      29.755  -4.717 -31.471  0.00  0.00    +0.001 A 
ATOM    119  CD2 TRP A   4      30.704  -5.707 -31.197  0.00  0.00    +0.013 A 
ENDBRANCH 109 110
ENDBRANCH  79 109
ENDBRANCH  75  79
ENDBRANCH  74  76
BRANCH  74 120
ATOM    120  CB  LEU A   5      28.695  -5.083 -27.694  0.00  0.00    +0.029 C 
BRANCH 120 121
ATOM    121  CG  LEU A   5      27.209  -4.936 -27.374  0.00  0.00    +0.002 C 
ATOM    122  CD2 LEU A   5      26.601  -6.325 -27.197  0.00  0.00    +0.000 C 
ATOM    123  CD1 LEU A   5      26.439  -4.163 -28.439  0.00  0.00    +0.000 C 
ENDBRANCH 120 121
ENDBRANCH  74 120
ENDBRANCH  70  74
ENDBRANCH  69  71
ENDBRANCH  65  69
ENDBRANCH   1  67
BRANCH   1 124
ATOM    124  CB  ASN A   7      33.455   0.452 -27.979  0.00  0.00    +0.114 C 
BRANCH 124 125
ATOM    125  CG  ASN A   7      34.714   0.429 -27.137  0.00  0.00    +0.222 C 
ATOM    126  OD1 ASN A   7      34.869   1.260 -26.251  0.00  0.00    -0.275 OA
ATOM    127  ND2 ASN A   7      35.612  -0.535 -27.390  0.00  0.00    -0.329 N 
ATOM    128 HD21 ASN A   7      36.482  -0.597 -26.823  0.00  0.00    +0.145 HD
ATOM    129 HD22 ASN A   7      35.439  -1.220 -28.153  0.00  0.00    +0.145 HD
ENDBRANCH 124 125
ENDBRANCH   1 124
TORSDOF 49
REMARK  Name = ../refined-set-2016/3hkw/3hkw_pocket.pdb
REMARK  252 active torsions:
REMARK  status: ('A' for Active; 'I' for Inactive)
REMARK    1  A    between atoms: _1  and  _3
REMARK    2  A    between atoms: _3  and  _4
REMARK    3  A    between atoms: _3  and  _6
REMARK    4  A    between atoms: _6  and  _7
REMARK    5  A    between atoms: _7  and  _8
REMARK    6  A    between atoms: _8  and  _9
REMARK    7  A    between atoms: _9  and  _10
REMARK    8  A    between atoms: _14  and  _16
REMARK    9  A    between atoms: _16  and  _17
REMARK   10  A    between atoms: _16  and  _19
REMARK   11  A    between atoms: _19  and  _20
REMARK   12  A    between atoms: _20  and  _21
REMARK   13  A    between atoms: _24  and  _26
REMARK   14  A    between atoms: _26  and  _27
REMARK   15  A    between atoms: _26  and  _29
REMARK   16  A    between atoms: _29  and  _30
REMARK   17  A    between atoms: _30  and  _31
REMARK   18  A    between atoms: _31  and  _32
REMARK   19  A    between atoms: _41  and  _43
REMARK   20  A    between atoms: _43  and  _44
REMARK   21  A    between atoms: _46  and  _48
REMARK   22  A    between atoms: _48  and  _49
REMARK   23  A    between atoms: _48  and  _51
REMARK   24  A    between atoms: _51  and  _52
REMARK   25  A    between atoms: _58  and  _60
REMARK   26  A    between atoms: _60  and  _61
REMARK   27  A    between atoms: _60  and  _63
REMARK   28  A    between atoms: _63  and  _64
REMARK   29  A    between atoms: _69  and  _70
REMARK   30  A    between atoms: _72  and  _74
REMARK   31  A    between atoms: _74  and  _75
REMARK   32  A    between atoms: _74  and  _77
REMARK   33  A    between atoms: _77  and  _78
REMARK   34  A    between atoms: _81  and  _82
REMARK   35  A    between atoms: _87  and  _89
REMARK   36  A    between atoms: _89  and  _90
REMARK   37  A    between atoms: _92  and  _94
REMARK   38  A    between atoms: _94  and  _95
REMARK   39  A    between atoms: _94  and  _97
REMARK   40  A    between atoms: _97  and  _98
REMARK   41  A    between atoms: _98  and  _99
REMARK   42  A    between atoms: _104  and  _106
REMARK   43  A    between atoms: _106  and  _107
REMARK   44  A    between atoms: _106  and  _109
REMARK   45  A    between atoms: _109  and  _110
REMARK   46  A    between atoms: _110  and  _111
REMARK   47  A    between atoms: _111  and  _112
REMARK   48  A    between atoms: _121  and  _123
REMARK   49  A    between atoms: _123  and  _124
REMARK   50  A    between atoms: _123  and  _126
REMARK   51  A    between atoms: _129  and  _131
REMARK   52  A    between atoms: _131  and  _132
REMARK   53  A    between atoms: _131  and  _134
REMARK   54  A    between atoms: _134  and  _135
REMARK   55  A    between atoms: _138  and  _140
REMARK   56  A    between atoms: _140  and  _141
REMARK   57  A    between atoms: _140  and  _143
REMARK   58  A    between atoms: _143  and  _144
REMARK   59  A    between atoms: _147  and  _149
REMARK   60  A    between atoms: _149  and  _150
REMARK   61  A    between atoms: _149  and  _152
REMARK   62  A    between atoms: _152  and  _153
REMARK   63  A    between atoms: _155  and  _157
REMARK   64  A    between atoms: _157  and  _158
REMARK   65  A    between atoms: _157  and  _160
REMARK   66  A    between atoms: _160  and  _161
REMARK   67  A    between atoms: _164  and  _166
REMARK   68  A    between atoms: _166  and  _167
REMARK   69  A    between atoms: _166  and  _169
REMARK   70  A    between atoms: _169  and  _170
REMARK   71  A    between atoms: _172  and  _174
REMARK   72  A    between atoms: _174  and  _175
REMARK   73  A    between atoms: _174  and  _177
REMARK   74  A    between atoms: _177  and  _178
REMARK   75  A    between atoms: _183  and  _185
REMARK   76  A    between atoms: _185  and  _186
REMARK   77  A    between atoms: _185  and  _188
REMARK   78  A    between atoms: _188  and  _189
REMARK   79  A    between atoms: _192  and  _194
REMARK   80  A    between atoms: _194  and  _195
REMARK   81  A    between atoms: _194  and  _197
REMARK   82  A    between atoms: _199  and  _201
REMARK   83  A    between atoms: _201  and  _202
REMARK   84  A    between atoms: _204  and  _206
REMARK   85  A    between atoms: _206  and  _207
REMARK   86  A    between atoms: _206  and  _209
REMARK   87  A    between atoms: _209  and  _210
REMARK   88  A    between atoms: _213  and  _215
REMARK   89  A    between atoms: _215  and  _216
REMARK   90  A    between atoms: _215  and  _218
REMARK   91  A    between atoms: _218  and  _219
REMARK   92  A    between atoms: _222  and  _224
REMARK   93  A    between atoms: _224  and  _225
REMARK   94  A    between atoms: _224  and  _227
REMARK   95  A    between atoms: _227  and  _228
REMARK   96  A    between atoms: _230  and  _232
REMARK   97  A    between atoms: _232  and  _233
REMARK   98  A    between atoms: _232  and  _235
REMARK   99  A    between atoms: _237  and  _239
REMARK  100  A    between atoms: _239  and  _240
REMARK  101  A    between atoms: _239  and  _242
REMARK  102  A    between atoms: _242  and  _243
REMARK  103  A    between atoms: _245  and  _247
REMARK  104  A    between atoms: _247  and  _248
REMARK  105  A    between atoms: _247  and  _250
REMARK  106  A    between atoms: _250  and  _251
REMARK  107  A    between atoms: _253  and  _255
REMARK  108  A    between atoms: _255  and  _256
REMARK  109  A    between atoms: _255  and  _258
REMARK  110  A    between atoms: _258  and  _259
REMARK  111  A    between atoms: _264  and  _266
REMARK  112  A    between atoms: _266  and  _267
REMARK  113  A    between atoms: _266  and  _269
REMARK  114  A    between atoms: _269  and  _270
REMARK  115  A    between atoms: _275  and  _276
REMARK  116  A    between atoms: _278  and  _280
REMARK  117  A    between atoms: _280  and  _281
REMARK  118  A    between atoms: _280  and  _283
REMARK  119  A    between atoms: _283  and  _284
REMARK  120  A    between atoms: _287  and  _289
REMARK  121  A    between atoms: _289  and  _290
REMARK  122  A    between atoms: _289  and  _292
REMARK  123  A    between atoms: _292  and  _293
REMARK  124  A    between atoms: _296  and  _298
REMARK  125  A    between atoms: _298  and  _299
REMARK  126  A    between atoms: _298  and  _301
REMARK  127  A    between atoms: _301  and  _302
REMARK  128  A    between atoms: _302  and  _303
REMARK  129  A    between atoms: _303  and  _304
REMARK  130  A    between atoms: _313  and  _315
REMARK  131  A    between atoms: _315  and  _316
REMARK  132  A    between atoms: _315  and  _318
REMARK  133  A    between atoms: _318  and  _319
REMARK  134  A    between atoms: _323  and  _324
REMARK  135  A    between atoms: _329  and  _331
REMARK  136  A    between atoms: _331  and  _332
REMARK  137  A    between atoms: _331  and  _334
REMARK  138  A    between atoms: _334  and  _335
REMARK  139  A    between atoms: _335  and  _336
REMARK  140  A    between atoms: _336  and  _337
REMARK  141  A    between atoms: _346  and  _348
REMARK  142  A    between atoms: _348  and  _349
REMARK  143  A    between atoms: _348  and  _351
REMARK  144  A    between atoms: _351  and  _352
REMARK  145  A    between atoms: _352  and  _353
REMARK  146  A    between atoms: _356  and  _358
REMARK  147  A    between atoms: _358  and  _359
REMARK  148  A    between atoms: _358  and  _361
REMARK  149  A    between atoms: _364  and  _366
REMARK  150  A    between atoms: _366  and  _367
REMARK  151  A    between atoms: _366  and  _369
REMARK  152  A    between atoms: _369  and  _370
REMARK  153  A    between atoms: _375  and  _377
REMARK  154  A    between atoms: _377  and  _378
REMARK  155  A    between atoms: _377  and  _380
REMARK  156  A    between atoms: _380  and  _381
REMARK  157  A    between atoms: _383  and  _385
REMARK  158  A    between atoms: _385  and  _386
REMARK  159  A    between atoms: _385  and  _388
REMARK  160  A    between atoms: _388  and  _389
REMARK  161  A    between atoms: _399  and  _401
REMARK  162  A    between atoms: _401  and  _402
REMARK  163  A    between atoms: _401  and  _404
REMARK  164  A    between atoms: _404  and  _405
REMARK  165  A    between atoms: _408  and  _410
REMARK  166  A    between atoms: _410  and  _411
REMARK  167  A    between atoms: _413  and  _415
REMARK  168  A    between atoms: _415  and  _416
REMARK  169  A    between atoms: _415  and  _418
REMARK  170  A    between atoms: _418  and  _419
REMARK  171  A    between atoms: _424  and  _426
REMARK  172  A    between atoms: _426  and  _427
REMARK  173  A    between atoms: _426  and  _429
REMARK  174  A    between atoms: _429  and  _430
REMARK  175  A    between atoms: _433  and  _435
REMARK  176  A    between atoms: _435  and  _436
REMARK  177  A    between atoms: _435  and  _438
REMARK  178  A    between atoms: _438  and  _439
REMARK  179  A    between atoms: _442  and  _444
REMARK  180  A    between atoms: _444  and  _445
REMARK  181  A    between atoms: _444  and  _447
REMARK  182  A    between atoms: _447  and  _448
REMARK  183  A    between atoms: _448  and  _449
REMARK  184  A    between atoms: _451  and  _453
REMARK  185  A    between atoms: _453  and  _454
REMARK  186  A    between atoms: _453  and  _456
REMARK  187  A    between atoms: _456  and  _457
REMARK  188  A    between atoms: _463  and  _465
REMARK  189  A    between atoms: _465  and  _466
REMARK  190  A    between atoms: _470  and  _471
REMARK  191  A    between atoms: _476  and  _478
REMARK  192  A    between atoms: _478  and  _479
REMARK  193  A    between atoms: _478  and  _481
REMARK  194  A    between atoms: _481  and  _482
REMARK  195  A    between atoms: _485  and  _487
REMARK  196  A    between atoms: _487  and  _488
REMARK  197  A    between atoms: _487  and  _490
REMARK  198  A    between atoms: _490  and  _491
REMARK  199  A    between atoms: _501  and  _503
REMARK  200  A    between atoms: _503  and  _504
REMARK  201  A    between atoms: _503  and  _506
REMARK  202  A    between atoms: _508  and  _510
REMARK  203  A    between atoms: _510  and  _511
REMARK  204  A    between atoms: _510  and  _513
REMARK  205  A    between atoms: _513  and  _514
REMARK  206  A    between atoms: _514  and  _515
REMARK  207  A    between atoms: _518  and  _520
REMARK  208  A    between atoms: _520  and  _521
REMARK  209  A    between atoms: _520  and  _523
REMARK  210  A    between atoms: _523  and  _524
REMARK  211  A    between atoms: _527  and  _529
REMARK  212  A    between atoms: _529  and  _530
REMARK  213  A    between atoms: _529  and  _532
REMARK  214  A    between atoms: _532  and  _533
REMARK  215  A    between atoms: _538  and  _539
REMARK  216  A    between atoms: _541  and  _543
REMARK  217  A    between atoms: _543  and  _544
REMARK  218  A    between atoms: _546  and  _548
REMARK  219  A    between atoms: _548  and  _549
REMARK  220  A    between atoms: _552  and  _554
REMARK  221  A    between atoms: _554  and  _555
REMARK  222  A    between atoms: _554  and  _557
REMARK  223  A    between atoms: _559  and  _561
REMARK  224  A    between atoms: _561  and  _562
REMARK  225  A    between atoms: _561  and  _564
REMARK  226  A    between atoms: _564  and  _565
REMARK  227  A    between atoms: _570  and  _571
REMARK  228  A    between atoms: _573  and  _575
REMARK  229  A    between atoms: _575  and  _576
REMARK  230  A    between atoms: _575  and  _578
REMARK  231  A    between atoms: _578  and  _579
REMARK  232  A    between atoms: _584  and  _586
REMARK  233  A    between atoms: _586  and  _587
REMARK  234  A    between atoms: _586  and  _589
REMARK  235  A    between atoms: _589  and  _590
REMARK  236  A    between atoms: _596  and  _598
REMARK  237  A    between atoms: _598  and  _599
REMARK  238  A    between atoms: _602  and  _604
REMARK  239  A    between atoms: _604  and  _605
REMARK  240  A    between atoms: _607  and  _609
REMARK  241  A    between atoms: _609  and  _610
REMARK  242  A    between atoms: _609  and  _612
REMARK  243  A    between atoms: _612  and  _613
REMARK  244  A    between atoms: _618  and  _619
REMARK  245  A    between atoms: _621  and  _623
REMARK  246  A    between atoms: _623  and  _624
REMARK  247  A    between atoms: _623  and  _626
REMARK  248  A    between atoms: _626  and  _627
REMARK  249  A    between atoms: _629  and  _631
REMARK  250  A    between atoms: _631  and  _632
REMARK  251  A    between atoms: _634  and  _636
REMARK  252  A    between atoms: _636  and  _637
REMARK                            x       y       z     vdW  Elec       q    Type
REMARK                         _______ _______ _______ _____ _____    ______ ____
ROOT
ATOM      1  CG  TRP A   1      35.316   6.569 -33.408  0.00  0.00    -0.002 A 
ATOM      2  CD2 TRP A   1      35.217   5.699 -32.280  0.00  0.00    +0.013 A 
ATOM      3  CE2 TRP A   1      35.382   6.494 -31.120  0.00  0.00    +0.056 A 
ATOM      4  CZ2 TRP A   1      35.307   5.961 -29.842  0.00  0.00    +0.017 A 
ATOM      5  CH2 TRP A   1      35.117   4.611 -29.729  0.00  0.00    +0.001 A 
ATOM      6  CZ3 TRP A   1      34.984   3.794 -30.853  0.00  0.00    +0.000 A 
ATOM      7  NE1 TRP A   1      35.535   7.797 -31.529  0.00  0.00    -0.352 N 
ATOM      8  HE1 TRP A   1      35.638   8.622 -30.905  0.00  0.00    +0.166 HD
ATOM      9  CE3 TRP A   1      35.028   4.323 -32.132  0.00  0.00    +0.001 A 
ATOM     10  CD1 TRP A   1      35.529   7.825 -32.908  0.00  0.00    +0.068 A 
ENDROOT
BRANCH   1  11
ATOM     11  CB  TRP A   1      35.242   6.184 -34.855  0.00  0.00    +0.053 C 
BRANCH  11  12
ATOM     12  CA  TRP A   1      33.851   6.232 -35.491  0.00  0.00    +0.137 C 
BRANCH  12  13
ATOM     13  N   TRP A   1      33.219   7.526 -35.247  0.00  0.00    -0.239 NA
ATOM     14  H   TRP A   1      33.556   8.091 -34.441  0.00  0.00    +0.142 HD
ENDBRANCH  12  13
BRANCH  12  15
ATOM     15  C   TRP A   1      32.974   5.061 -35.026  0.00  0.00    +0.224 C 
ATOM     16  O   TRP A   1      32.904   4.039 -35.692  0.00  0.00    -0.287 OA
ENDBRANCH  12  15
ENDBRANCH  11  12
ENDBRANCH   1  11
TORSDOF 4
REMARK  Name = ../refined-set-2016/3hkw/3hkw_pocket.pdb
REMARK  252 active torsions:
REMARK  status: ('A' for Active; 'I' for Inactive)
REMARK    1  A    between atoms: _1  and  _3
REMARK    2  A    between atoms: _3  and  _4
REMARK    3  A    between atoms: _3  and  _6
REMARK    4  A    between atoms: _6  and  _7
REMARK    5  A    between atoms: _7  and  _8
REMARK    6  A    between atoms: _8  and  _9
REMARK    7  A    between atoms: _9  and  _10
REMARK    8  A    between atoms: _14  and  _16
REMARK    9  A    between atoms: _16  and  _17
REMARK   10  A    between atoms: _16  and  _19
REMARK   11  A    between atoms: _19  and  _20
REMARK   12  A    between atoms: _20  and  _21
REMARK   13  A    between atoms: _24  and  _26
REMARK   14  A    between atoms: _26  and  _27
REMARK   15  A    between atoms: _26  and  _29
REMARK   16  A    between atoms: _29  and  _30
REMARK   17  A    between atoms: _30  and  _31
REMARK   18  A    between atoms: _31  and  _32
REMARK   19  A    between atoms: _41  and  _43
REMARK   20  A    between atoms: _43  and  _44
REMARK   21  A    between atoms: _46  and  _48
REMARK   22  A    between atoms: _48  and  _49
REMARK   23  A    between atoms: _48  and  _51
REMARK   24  A    between atoms: _51  and  _52
REMARK   25  A    between atoms: _58  and  _60
REMARK   26  A    between atoms: _60  and  _61
REMARK   27  A    between atoms: _60  and  _63
REMARK   28  A    between atoms: _63  and  _64
REMARK   29  A    between atoms: _69  and  _70
REMARK   30  A    between atoms: _72  and  _74
REMARK   31  A    between atoms: _74  and  _75
REMARK   32  A    between atoms: _74  and  _77
REMARK   33  A    between atoms: _77  and  _78
REMARK   34  A    between atoms: _81  and  _82
REMARK   35  A    between atoms: _87  and  _89
REMARK   36  A    between atoms: _89  and  _90
REMARK   37  A    between atoms: _92  and  _94
REMARK   38  A    between atoms: _94  and  _95
REMARK   39  A    between atoms: _94  and  _97
REMARK   40  A    between atoms: _97  and  _98
REMARK   41  A    between atoms: _98  and  _99
REMARK   42  A    between atoms: _104  and  _106
REMARK   43  A    between atoms: _106  and  _107
REMARK   44  A    between atoms: _106  and  _109
REMARK   45  A    between atoms: _109  and  _110
REMARK   46  A    between atoms: _110  and  _111
REMARK   47  A    between atoms: _111  and  _112
REMARK   48  A    between atoms: _121  and  _123
REMARK   49  A    between atoms: _123  and  _124
REMARK   50  A    between atoms: _123  and  _126
REMARK   51  A    between atoms: _129  and  _131
REMARK   52  A    between atoms: _131  and  _132
REMARK   53  A    between atoms: _131  and  _134
REMARK   54  A    between atoms: _134  and  _135
REMARK   55  A    between atoms: _138  and  _140
REMARK   56  A    between atoms: _140  and  _141
REMARK   57  A    between atoms: _140  and  _143
REMARK   58  A    between atoms: _143  and  _144
REMARK   59  A    between atoms: _147  and  _149
REMARK   60  A    between atoms: _149  and  _150
REMARK   61  A    between atoms: _149  and  _152
REMARK   62  A    between atoms: _152  and  _153
REMARK   63  A    between atoms: _155  and  _157
REMARK   64  A    between atoms: _157  and  _158
REMARK   65  A    between atoms: _157  and  _160
REMARK   66  A    between atoms: _160  and  _161
REMARK   67  A    between atoms: _164  and  _166
REMARK   68  A    between atoms: _166  and  _167
REMARK   69  A    between atoms: _166  and  _169
REMARK   70  A    between atoms: _169  and  _170
REMARK   71  A    between atoms: _172  and  _174
REMARK   72  A    between atoms: _174  and  _175
REMARK   73  A    between atoms: _174  and  _177
REMARK   74  A    between atoms: _177  and  _178
REMARK   75  A    between atoms: _183  and  _185
REMARK   76  A    between atoms: _185  and  _186
REMARK   77  A    between atoms: _185  and  _188
REMARK   78  A    between atoms: _188  and  _189
REMARK   79  A    between atoms: _192  and  _194
REMARK   80  A    between atoms: _194  and  _195
REMARK   81  A    between atoms: _194  and  _197
REMARK   82  A    between atoms: _199  and  _201
REMARK   83  A    between atoms: _201  and  _202
REMARK   84  A    between atoms: _204  and  _206
REMARK   85  A    between atoms: _206  and  _207
REMARK   86  A    between atoms: _206  and  _209
REMARK   87  A    between atoms: _209  and  _210
REMARK   88  A    between atoms: _213  and  _215
REMARK   89  A    between atoms: _215  and  _216
REMARK   90  A    between atoms: _215  and  _218
REMARK   91  A    between atoms: _218  and  _219
REMARK   92  A    between atoms: _222  and  _224
REMARK   93  A    between atoms: _224  and  _225
REMARK   94  A    between atoms: _224  and  _227
REMARK   95  A    between atoms: _227  and  _228
REMARK   96  A    between atoms: _230  and  _232
REMARK   97  A    between atoms: _232  and  _233
REMARK   98  A    between atoms: _232  and  _235
REMARK   99  A    between atoms: _237  and  _239
REMARK  100  A    between atoms: _239  and  _240
REMARK  101  A    between atoms: _239  and  _242
REMARK  102  A    between atoms: _242  and  _243
REMARK  103  A    between atoms: _245  and  _247
REMARK  104  A    between atoms: _247  and  _248
REMARK  105  A    between atoms: _247  and  _250
REMARK  106  A    between atoms: _250  and  _251
REMARK  107  A    between atoms: _253  and  _255
REMARK  108  A    between atoms: _255  and  _256
REMARK  109  A    between atoms: _255  and  _258
REMARK  110  A    between atoms: _258  and  _259
REMARK  111  A    between atoms: _264  and  _266
REMARK  112  A    between atoms: _266  and  _267
REMARK  113  A    between atoms: _266  and  _269
REMARK  114  A    between atoms: _269  and  _270
REMARK  115  A    between atoms: _275  and  _276
REMARK  116  A    between atoms: _278  and  _280
REMARK  117  A    between atoms: _280  and  _281
REMARK  118  A    between atoms: _280  and  _283
REMARK  119  A    between atoms: _283  and  _284
REMARK  120  A    between atoms: _287  and  _289
REMARK  121  A    between atoms: _289  and  _290
REMARK  122  A    between atoms: _289  and  _292
REMARK  123  A    between atoms: _292  and  _293
REMARK  124  A    between atoms: _296  and  _298
REMARK  125  A    between atoms: _298  and  _299
REMARK  126  A    between atoms: _298  and  _301
REMARK  127  A    between atoms: _301  and  _302
REMARK  128  A    between atoms: _302  and  _303
REMARK  129  A    between atoms: _303  and  _304
REMARK  130  A    between atoms: _313  and  _315
REMARK  131  A    between atoms: _315  and  _316
REMARK  132  A    between atoms: _315  and  _318
REMARK  133  A    between atoms: _318  and  _319
REMARK  134  A    between atoms: _323  and  _324
REMARK  135  A    between atoms: _329  and  _331
REMARK  136  A    between atoms: _331  and  _332
REMARK  137  A    between atoms: _331  and  _334
REMARK  138  A    between atoms: _334  and  _335
REMARK  139  A    between atoms: _335  and  _336
REMARK  140  A    between atoms: _336  and  _337
REMARK  141  A    between atoms: _346  and  _348
REMARK  142  A    between atoms: _348  and  _349
REMARK  143  A    between atoms: _348  and  _351
REMARK  144  A    between atoms: _351  and  _352
REMARK  145  A    between atoms: _352  and  _353
REMARK  146  A    between atoms: _356  and  _358
REMARK  147  A    between atoms: _358  and  _359
REMARK  148  A    between atoms: _358  and  _361
REMARK  149  A    between atoms: _364  and  _366
REMARK  150  A    between atoms: _366  and  _367
REMARK  151  A    between atoms: _366  and  _369
REMARK  152  A    between atoms: _369  and  _370
REMARK  153  A    between atoms: _375  and  _377
REMARK  154  A    between atoms: _377  and  _378
REMARK  155  A    between atoms: _377  and  _380
REMARK  156  A    between atoms: _380  and  _381
REMARK  157  A    between atoms: _383  and  _385
REMARK  158  A    between atoms: _385  and  _386
REMARK  159  A    between atoms: _385  and  _388
REMARK  160  A    between atoms: _388  and  _389
REMARK  161  A    between atoms: _399  and  _401
REMARK  162  A    between atoms: _401  and  _402
REMARK  163  A    between atoms: _401  and  _404
REMARK  164  A    between atoms: _404  and  _405
REMARK  165  A    between atoms: _408  and  _410
REMARK  166  A    between atoms: _410  and  _411
REMARK  167  A    between atoms: _413  and  _415
REMARK  168  A    between atoms: _415  and  _416
REMARK  169  A    between atoms: _415  and  _418
REMARK  170  A    between atoms: _418  and  _419
REMARK  171  A    between atoms: _424  and  _426
REMARK  172  A    between atoms: _426  and  _427
REMARK  173  A    between atoms: _426  and  _429
REMARK  174  A    between atoms: _429  and  _430
REMARK  175  A    between atoms: _433  and  _435
REMARK  176  A    between atoms: _435  and  _436
REMARK  177  A    between atoms: _435  and  _438
REMARK  178  A    between atoms: _438  and  _439
REMARK  179  A    between atoms: _442  and  _444
REMARK  180  A    between atoms: _444  and  _445
REMARK  181  A    between atoms: _444  and  _447
REMARK  182  A    between atoms: _447  and  _448
REMARK  183  A    between atoms: _448  and  _449
REMARK  184  A    between atoms: _451  and  _453
REMARK  185  A    between atoms: _453  and  _454
REMARK  186  A    between atoms: _453  and  _456
REMARK  187  A    between atoms: _456  and  _457
REMARK  188  A    between atoms: _463  and  _465
REMARK  189  A    between atoms: _465  and  _466
REMARK  190  A    between atoms: _470  and  _471
REMARK  191  A    between atoms: _476  and  _478
REMARK  192  A    between atoms: _478  and  _479
REMARK  193  A    between atoms: _478  and  _481
REMARK  194  A    between atoms: _481  and  _482
REMARK  195  A    between atoms: _485  and  _487
REMARK  196  A    between atoms: _487  and  _488
REMARK  197  A    between atoms: _487  and  _490
REMARK  198  A    between atoms: _490  and  _491
REMARK  199  A    between atoms: _501  and  _503
REMARK  200  A    between atoms: _503  and  _504
REMARK  201  A    between atoms: _503  and  _506
REMARK  202  A    between atoms: _508  and  _510
REMARK  203  A    between atoms: _510  and  _511
REMARK  204  A    between atoms: _510  and  _513
REMARK  205  A    between atoms: _513  and  _514
REMARK  206  A    between atoms: _514  and  _515
REMARK  207  A    between atoms: _518  and  _520
REMARK  208  A    between atoms: _520  and  _521
REMARK  209  A    between atoms: _520  and  _523
REMARK  210  A    between atoms: _523  and  _524
REMARK  211  A    between atoms: _527  and  _529
REMARK  212  A    between atoms: _529  and  _530
REMARK  213  A    between atoms: _529  and  _532
REMARK  214  A    between atoms: _532  and  _533
REMARK  215  A    between atoms: _538  and  _539
REMARK  216  A    between atoms: _541  and  _543
REMARK  217  A    between atoms: _543  and  _544
REMARK  218  A    between atoms: _546  and  _548
REMARK  219  A    between atoms: _548  and  _549
REMARK  220  A    between atoms: _552  and  _554
REMARK  221  A    between atoms: _554  and  _555
REMARK  222  A    between atoms: _554  and  _557
REMARK  223  A    between atoms: _559  and  _561
REMARK  224  A    between atoms: _561  and  _562
REMARK  225  A    between atoms: _561  and  _564
REMARK  226  A    between atoms: _564  and  _565
REMARK  227  A    between atoms: _570  and  _571
REMARK  228  A    between atoms: _573  and  _575
REMARK  229  A    between atoms: _575  and  _576
REMARK  230  A    between atoms: _575  and  _578
REMARK  231  A    between atoms: _578  and  _579
REMARK  232  A    between atoms: _584  and  _586
REMARK  233  A    between atoms: _586  and  _587
REMARK  234  A    between atoms: _586  and  _589
REMARK  235  A    between atoms: _589  and  _590
REMARK  236  A    between atoms: _596  and  _598
REMARK  237  A    between atoms: _598  and  _599
REMARK  238  A    between atoms: _602  and  _604
REMARK  239  A    between atoms: _604  and  _605
REMARK  240  A    between atoms: _607  and  _609
REMARK  241  A    between atoms: _609  and  _610
REMARK  242  A    between atoms: _609  and  _612
REMARK  243  A    between atoms: _612  and  _613
REMARK  244  A    between atoms: _618  and  _619
REMARK  245  A    between atoms: _621  and  _623
REMARK  246  A    between atoms: _623  and  _624
REMARK  247  A    between atoms: _623  and  _626
REMARK  248  A    between atoms: _626  and  _627
REMARK  249  A    between atoms: _629  and  _631
REMARK  250  A    between atoms: _631  and  _632
REMARK  251  A    between atoms: _634  and  _636
REMARK  252  A    between atoms: _636  and  _637
REMARK                            x       y       z     vdW  Elec       q    Type
REMARK                         _______ _______ _______ _____ _____    ______ ____
ROOT
ATOM      1  CA  TYR A   4      31.557   0.122 -15.946  0.00  0.00    +0.153 C 
ENDROOT
BRANCH   1   4
ATOM      2  C   ILE A   3      29.962  -1.136 -17.303  0.00  0.00    +0.241 C 
ATOM      3  O   ILE A   3      29.579  -1.826 -16.356  0.00  0.00    -0.273 OA
ATOM      4  N   TYR A   4      30.847  -0.153 -17.191  0.00  0.00    -0.297 N 
ATOM      5  H   TYR A   4      31.042   0.443 -18.021  0.00  0.00    +0.150 HD
BRANCH   2   6
ATOM      6  CA  ILE A   3      29.465  -1.414 -18.700  0.00  0.00    +0.149 C 
BRANCH   6   8
ATOM      7  C   GLU A   2      30.444  -3.241 -20.020  0.00  0.00    +0.241 C 
ATOM      8  N   ILE A   3      29.782  -2.812 -18.948  0.00  0.00    -0.297 N 
ATOM      9  H   ILE A   3      29.474  -3.516 -18.248  0.00  0.00    +0.150 HD
ATOM     10  O   GLU A   2      30.719  -2.541 -20.999  0.00  0.00    -0.273 OA
BRANCH   7  11
ATOM     11  CA  GLU A   2      30.831  -4.688 -19.990  0.00  0.00    +0.149 C 
BRANCH  11  14
ATOM     12  C   CYS A   1      29.856  -6.360 -21.458  0.00  0.00    +0.239 C 
ATOM     13  O   CYS A   1      29.195  -6.851 -20.541  0.00  0.00    -0.274 OA
ATOM     14  N   GLU A   2      30.653  -5.317 -21.293  0.00  0.00    -0.297 N 
ATOM     15  H   GLU A   2      31.166  -4.936 -22.114  0.00  0.00    +0.150 HD
BRANCH  12  16
ATOM     16  CA  CYS A   1      29.778  -6.935 -22.860  0.00  0.00    +0.156 C 
BRANCH  16  17
ATOM     17  CB  CYS A   1      29.245  -5.901 -23.846  0.00  0.00    +0.095 C 
ATOM     18  SG  CYS A   1      27.612  -5.248 -23.437  0.00  0.00    -0.080 S 
ENDBRANCH  16  17
BRANCH  16  19
ATOM     19  N   CYS A   1      28.922  -8.104 -22.810  0.00  0.00    -0.237 NA
ATOM     20  H   CYS A   1      28.142  -8.121 -22.122  0.00  0.00    +0.142 HD
ENDBRANCH  16  19
ENDBRANCH  12  16
ENDBRANCH  11  14
BRANCH  11  21
ATOM     21  CB  GLU A   2      32.280  -4.778 -19.537  0.00  0.00    +0.041 C 
BRANCH  21  22
ATOM     22  CG  GLU A   2      32.652  -6.167 -19.087  0.00  0.00    +0.116 C 
BRANCH  22  23
ATOM     23  CD  GLU A   2      34.140  -6.405 -18.991  0.00  0.00    +0.365 C 
ATOM     24  OE2 GLU A   2      34.523  -7.325 -18.246  0.00  0.00    -0.246 OA
ATOM     25  OE1 GLU A   2      34.927  -5.716 -19.682  0.00  0.00    -0.246 OA
ENDBRANCH  22  23
ENDBRANCH  21  22
ENDBRANCH  11  21
ENDBRANCH   7  11
ENDBRANCH   6   8
BRANCH   6  26
ATOM     26  CB  ILE A   3      27.955  -1.132 -18.779  0.00  0.00    +0.027 C 
ATOM     27  CG2 ILE A   3      27.660   0.334 -18.397  0.00  0.00    +0.002 C 
BRANCH  26  28
ATOM     28  CG1 ILE A   3      27.452  -1.461 -20.188  0.00  0.00    +0.002 C 
ATOM     29  CD1 ILE A   3      25.966  -1.308 -20.384  0.00  0.00    +0.000 C 
ENDBRANCH  26  28
ENDBRANCH   6  26
ENDBRANCH   2   6
ENDBRANCH   1   4
BRANCH   1  30
ATOM     30  C   TYR A   4      32.031  -1.144 -15.245  0.00  0.00    +0.241 C 
ATOM     31  O   TYR A   4      31.893  -1.268 -14.035  0.00  0.00    -0.273 OA
ATOM     32  N   GLY A   5      32.566  -2.091 -16.029  0.00  0.00    -0.295 N 
ATOM     33  H   GLY A   5      32.519  -1.975 -17.061  0.00  0.00    +0.150 HD
BRANCH  32  34
ATOM     34  CA  GLY A   5      33.209  -3.274 -15.483  0.00  0.00    +0.176 C 
BRANCH  34  35
ATOM     35  C   GLY A   5      32.311  -4.436 -15.126  0.00  0.00    +0.243 C 
ATOM     36  O   GLY A   5      32.802  -5.532 -14.888  0.00  0.00    -0.273 OA
ATOM     37  N   ALA A   6      31.001  -4.208 -15.078  0.00  0.00    -0.297 N 
ATOM     38  H   ALA A   6      30.648  -3.236 -15.191  0.00  0.00    +0.150 HD
BRANCH  37  39
ATOM     39  CA  ALA A   6      30.050  -5.293 -14.870  0.00  0.00    +0.149 C 
ATOM     40  CB  ALA A   6      28.827  -4.804 -14.147  0.00  0.00    +0.031 C 
BRANCH  39  41
ATOM     41  C   ALA A   6      29.664  -5.898 -16.209  0.00  0.00    +0.241 C 
ATOM     42  N   CYS A   7      29.409  -7.203 -16.214  0.00  0.00    -0.296 N 
ATOM     43  H   CYS A   7      29.442  -7.726 -15.316  0.00  0.00    +0.150 HD
ATOM     44  O   ALA A   6      29.554  -5.180 -17.204  0.00  0.00    -0.273 OA
BRANCH  42  45
ATOM     45  CA  CYS A   7      29.082  -7.929 -17.446  0.00  0.00    +0.160 C 
BRANCH  45  46
ATOM     46  C   CYS A   7      27.575  -7.937 -17.671  0.00  0.00    +0.242 C 
ATOM     47  O   CYS A   7      26.801  -8.220 -16.741  0.00  0.00    -0.273 OA
ATOM     48  N   TYR A   8      27.162  -7.602 -18.895  0.00  0.00    -0.298 N 
ATOM     49  H   TYR A   8      27.872  -7.312 -19.598  0.00  0.00    +0.150 HD
BRANCH  48  50
ATOM     50  CA  TYR A   8      25.764  -7.625 -19.287  0.00  0.00    +0.141 C 
BRANCH  50  51
ATOM     51  C   TYR A   8      25.570  -8.468 -20.517  0.00  0.00    +0.227 C 
ATOM     52  O   TYR A   8      26.417  -8.485 -21.392  0.00  0.00    -0.286 OA
ENDBRANCH  50  51
BRANCH  50  53
ATOM     53  CB  TYR A   8      25.266  -6.218 -19.610  0.00  0.00    +0.054 C 
BRANCH  53  54
ATOM     54  CG  TYR A   8      25.227  -5.317 -18.419  0.00  0.00    -0.020 A 
ATOM     55  CD2 TYR A   8      24.040  -5.088 -17.742  0.00  0.00    -0.001 A 
ATOM     56  CE2 TYR A   8      24.001  -4.270 -16.646  0.00  0.00    +0.036 A 
ATOM     57  CZ  TYR A   8      25.165  -3.681 -16.198  0.00  0.00    +0.134 A 
ATOM     58  CE1 TYR A   8      26.348  -3.895 -16.858  0.00  0.00    +0.036 A 
ATOM     59  CD1 TYR A   8      26.374  -4.722 -17.951  0.00  0.00    -0.001 A 
BRANCH  57  60
ATOM     60  OH  TYR A   8      25.130  -2.868 -15.098  0.00  0.00    -0.506 OA
ATOM     61  HH  TYR A   8      26.041  -2.529 -14.911  0.00  0.00    +0.292 HD
ENDBRANCH  57  60
ENDBRANCH  53  54
ENDBRANCH  50  53
ENDBRANCH  48  50
ENDBRANCH  45  46
BRANCH  45  62
ATOM     62  CB  CYS A   7      29.595  -9.357 -17.352  0.00  0.00    +0.098 C 
ATOM     63  SG  CYS A   7      29.428 -10.310 -18.857  0.00  0.00    -0.080 S 
ENDBRANCH  45  62
ENDBRANCH  42  45
ENDBRANCH  39  41
ENDBRANCH  37  39
ENDBRANCH  34  35
ENDBRANCH  32  34
ENDBRANCH   1  30
BRANCH   1  64
ATOM     64  CB  TYR A   4      30.710   0.997 -15.025  0.00  0.00    +0.055 C 
BRANCH  64  65
ATOM     65  CG  TYR A   4      30.445   2.395 -15.541  0.00  0.00    -0.020 A 
ATOM     66  CD2 TYR A   4      29.439   3.165 -14.980  0.00  0.00    -0.001 A 
ATOM     67  CE2 TYR A   4      29.201   4.445 -15.403  0.00  0.00    +0.036 A 
ATOM     68  CZ  TYR A   4      29.973   5.007 -16.392  0.00  0.00    +0.134 A 
ATOM     69  CE1 TYR A   4      30.974   4.273 -16.985  0.00  0.00    +0.036 A 
ATOM     70  CD1 TYR A   4      31.229   2.978 -16.545  0.00  0.00    -0.001 A 
BRANCH  68  71
ATOM     71  OH  TYR A   4      29.692   6.289 -16.828  0.00  0.00    -0.506 OA
ATOM     72  HH  TYR A   4      29.770   6.919 -16.068  0.00  0.00    +0.292 HD
ENDBRANCH  68  71
ENDBRANCH  64  65
ENDBRANCH   1  64
TORSDOF 29
REMARK  Name = ../refined-set-2016/3hkw/3hkw_pocket.pdb
REMARK  252 active torsions:
REMARK  status: ('A' for Active; 'I' for Inactive)
REMARK    1  A    between atoms: _1  and  _3
REMARK    2  A    between atoms: _3  and  _4
REMARK    3  A    between atoms: _3  and  _6
REMARK    4  A    between atoms: _6  and  _7
REMARK    5  A    between atoms: _7  and  _8
REMARK    6  A    between atoms: _8  and  _9
REMARK    7  A    between atoms: _9  and  _10
REMARK    8  A    between atoms: _14  and  _16
REMARK    9  A    between atoms: _16  and  _17
REMARK   10  A    between atoms: _16  and  _19
REMARK   11  A    between atoms: _19  and  _20
REMARK   12  A    between atoms: _20  and  _21
REMARK   13  A    between atoms: _24  and  _26
REMARK   14  A    between atoms: _26  and  _27
REMARK   15  A    between atoms: _26  and  _29
REMARK   16  A    between atoms: _29  and  _30
REMARK   17  A    between atoms: _30  and  _31
REMARK   18  A    between atoms: _31  and  _32
REMARK   19  A    between atoms: _41  and  _43
REMARK   20  A    between atoms: _43  and  _44
REMARK   21  A    between atoms: _46  and  _48
REMARK   22  A    between atoms: _48  and  _49
REMARK   23  A    between atoms: _48  and  _51
REMARK   24  A    between atoms: _51  and  _52
REMARK   25  A    between atoms: _58  and  _60
REMARK   26  A    between atoms: _60  and  _61
REMARK   27  A    between atoms: _60  and  _63
REMARK   28  A    between atoms: _63  and  _64
REMARK   29  A    between atoms: _69  and  _70
REMARK   30  A    between atoms: _72  and  _74
REMARK   31  A    between atoms: _74  and  _75
REMARK   32  A    between atoms: _74  and  _77
REMARK   33  A    between atoms: _77  and  _78
REMARK   34  A    between atoms: _81  and  _82
REMARK   35  A    between atoms: _87  and  _89
REMARK   36  A    between atoms: _89  and  _90
REMARK   37  A    between atoms: _92  and  _94
REMARK   38  A    between atoms: _94  and  _95
REMARK   39  A    between atoms: _94  and  _97
REMARK   40  A    between atoms: _97  and  _98
REMARK   41  A    between atoms: _98  and  _99
REMARK   42  A    between atoms: _104  and  _106
REMARK   43  A    between atoms: _106  and  _107
REMARK   44  A    between atoms: _106  and  _109
REMARK   45  A    between atoms: _109  and  _110
REMARK   46  A    between atoms: _110  and  _111
REMARK   47  A    between atoms: _111  and  _112
REMARK   48  A    between atoms: _121  and  _123
REMARK   49  A    between atoms: _123  and  _124
REMARK   50  A    between atoms: _123  and  _126
REMARK   51  A    between atoms: _129  and  _131
REMARK   52  A    between atoms: _131  and  _132
REMARK   53  A    between atoms: _131  and  _134
REMARK   54  A    between atoms: _134  and  _135
REMARK   55  A    between atoms: _138  and  _140
REMARK   56  A    between atoms: _140  and  _141
REMARK   57  A    between atoms: _140  and  _143
REMARK   58  A    between atoms: _143  and  _144
REMARK   59  A    between atoms: _147  and  _149
REMARK   60  A    between atoms: _149  and  _150
REMARK   61  A    between atoms: _149  and  _152
REMARK   62  A    between atoms: _152  and  _153
REMARK   63  A    between atoms: _155  and  _157
REMARK   64  A    between atoms: _157  and  _158
REMARK   65  A    between atoms: _157  and  _160
REMARK   66  A    between atoms: _160  and  _161
REMARK   67  A    between atoms: _164  and  _166
REMARK   68  A    between atoms: _166  and  _167
REMARK   69  A    between atoms: _166  and  _169
REMARK   70  A    between atoms: _169  and  _170
REMARK   71  A    between atoms: _172  and  _174
REMARK   72  A    between atoms: _174  and  _175
REMARK   73  A    between atoms: _174  and  _177
REMARK   74  A    between atoms: _177  and  _178
REMARK   75  A    between atoms: _183  and  _185
REMARK   76  A    between atoms: _185  and  _186
REMARK   77  A    between atoms: _185  and  _188
REMARK   78  A    between atoms: _188  and  _189
REMARK   79  A    between atoms: _192  and  _194
REMARK   80  A    between atoms: _194  and  _195
REMARK   81  A    between atoms: _194  and  _197
REMARK   82  A    between atoms: _199  and  _201
REMARK   83  A    between atoms: _201  and  _202
REMARK   84  A    between atoms: _204  and  _206
REMARK   85  A    between atoms: _206  and  _207
REMARK   86  A    between atoms: _206  and  _209
REMARK   87  A    between atoms: _209  and  _210
REMARK   88  A    between atoms: _213  and  _215
REMARK   89  A    between atoms: _215  and  _216
REMARK   90  A    between atoms: _215  and  _218
REMARK   91  A    between atoms: _218  and  _219
REMARK   92  A    between atoms: _222  and  _224
REMARK   93  A    between atoms: _224  and  _225
REMARK   94  A    between atoms: _224  and  _227
REMARK   95  A    between atoms: _227  and  _228
REMARK   96  A    between atoms: _230  and  _232
REMARK   97  A    between atoms: _232  and  _233
REMARK   98  A    between atoms: _232  and  _235
REMARK   99  A    between atoms: _237  and  _239
REMARK  100  A    between atoms: _239  and  _240
REMARK  101  A    between atoms: _239  and  _242
REMARK  102  A    between atoms: _242  and  _243
REMARK  103  A    between atoms: _245  and  _247
REMARK  104  A    between atoms: _247  and  _248
REMARK  105  A    between atoms: _247  and  _250
REMARK  106  A    between atoms: _250  and  _251
REMARK  107  A    between atoms: _253  and  _255
REMARK  108  A    between atoms: _255  and  _256
REMARK  109  A    between atoms: _255  and  _258
REMARK  110  A    between atoms: _258  and  _259
REMARK  111  A    between atoms: _264  and  _266
REMARK  112  A    between atoms: _266  and  _267
REMARK  113  A    between atoms: _266  and  _269
REMARK  114  A    between atoms: _269  and  _270
REMARK  115  A    between atoms: _275  and  _276
REMARK  116  A    between atoms: _278  and  _280
REMARK  117  A    between atoms: _280  and  _281
REMARK  118  A    between atoms: _280  and  _283
REMARK  119  A    between atoms: _283  and  _284
REMARK  120  A    between atoms: _287  and  _289
REMARK  121  A    between atoms: _289  and  _290
REMARK  122  A    between atoms: _289  and  _292
REMARK  123  A    between atoms: _292  and  _293
REMARK  124  A    between atoms: _296  and  _298
REMARK  125  A    between atoms: _298  and  _299
REMARK  126  A    between atoms: _298  and  _301
REMARK  127  A    between atoms: _301  and  _302
REMARK  128  A    between atoms: _302  and  _303
REMARK  129  A    between atoms: _303  and  _304
REMARK  130  A    between atoms: _313  and  _315
REMARK  131  A    between atoms: _315  and  _316
REMARK  132  A    between atoms: _315  and  _318
REMARK  133  A    between atoms: _318  and  _319
REMARK  134  A    between atoms: _323  and  _324
REMARK  135  A    between atoms: _329  and  _331
REMARK  136  A    between atoms: _331  and  _332
REMARK  137  A    between atoms: _331  and  _334
REMARK  138  A    between atoms: _334  and  _335
REMARK  139  A    between atoms: _335  and  _336
REMARK  140  A    between atoms: _336  and  _337
REMARK  141  A    between atoms: _346  and  _348
REMARK  142  A    between atoms: _348  and  _349
REMARK  143  A    between atoms: _348  and  _351
REMARK  144  A    between atoms: _351  and  _352
REMARK  145  A    between atoms: _352  and  _353
REMARK  146  A    between atoms: _356  and  _358
REMARK  147  A    between atoms: _358  and  _359
REMARK  148  A    between atoms: _358  and  _361
REMARK  149  A    between atoms: _364  and  _366
REMARK  150  A    between atoms: _366  and  _367
REMARK  151  A    between atoms: _366  and  _369
REMARK  152  A    between atoms: _369  and  _370
REMARK  153  A    between atoms: _375  and  _377
REMARK  154  A    between atoms: _377  and  _378
REMARK  155  A    between atoms: _377  and  _380
REMARK  156  A    between atoms: _380  and  _381
REMARK  157  A    between atoms: _383  and  _385
REMARK  158  A    between atoms: _385  and  _386
REMARK  159  A    between atoms: _385  and  _388
REMARK  160  A    between atoms: _388  and  _389
REMARK  161  A    between atoms: _399  and  _401
REMARK  162  A    between atoms: _401  and  _402
REMARK  163  A    between atoms: _401  and  _404
REMARK  164  A    between atoms: _404  and  _405
REMARK  165  A    between atoms: _408  and  _410
REMARK  166  A    between atoms: _410  and  _411
REMARK  167  A    between atoms: _413  and  _415
REMARK  168  A    between atoms: _415  and  _416
REMARK  169  A    between atoms: _415  and  _418
REMARK  170  A    between atoms: _418  and  _419
REMARK  171  A    between atoms: _424  and  _426
REMARK  172  A    between atoms: _426  and  _427
REMARK  173  A    between atoms: _426  and  _429
REMARK  174  A    between atoms: _429  and  _430
REMARK  175  A    between atoms: _433  and  _435
REMARK  176  A    between atoms: _435  and  _436
REMARK  177  A    between atoms: _435  and  _438
REMARK  178  A    between atoms: _438  and  _439
REMARK  179  A    between atoms: _442  and  _444
REMARK  180  A    between atoms: _444  and  _445
REMARK  181  A    between atoms: _444  and  _447
REMARK  182  A    between atoms: _447  and  _448
REMARK  183  A    between atoms: _448  and  _449
REMARK  184  A    between atoms: _451  and  _453
REMARK  185  A    between atoms: _453  and  _454
REMARK  186  A    between atoms: _453  and  _456
REMARK  187  A    between atoms: _456  and  _457
REMARK  188  A    between atoms: _463  and  _465
REMARK  189  A    between atoms: _465  and  _466
REMARK  190  A    between atoms: _470  and  _471
REMARK  191  A    between atoms: _476  and  _478
REMARK  192  A    between atoms: _478  and  _479
REMARK  193  A    between atoms: _478  and  _481
REMARK  194  A    between atoms: _481  and  _482
REMARK  195  A    between atoms: _485  and  _487
REMARK  196  A    between atoms: _487  and  _488
REMARK  197  A    between atoms: _487  and  _490
REMARK  198  A    between atoms: _490  and  _491
REMARK  199  A    between atoms: _501  and  _503
REMARK  200  A    between atoms: _503  and  _504
REMARK  201  A    between atoms: _503  and  _506
REMARK  202  A    between atoms: _508  and  _510
REMARK  203  A    between atoms: _510  and  _511
REMARK  204  A    between atoms: _510  and  _513
REMARK  205  A    between atoms: _513  and  _514
REMARK  206  A    between atoms: _514  and  _515
REMARK  207  A    between atoms: _518  and  _520
REMARK  208  A    between atoms: _520  and  _521
REMARK  209  A    between atoms: _520  and  _523
REMARK  210  A    between atoms: _523  and  _524
REMARK  211  A    between atoms: _527  and  _529
REMARK  212  A    between atoms: _529  and  _530
REMARK  213  A    between atoms: _529  and  _532
REMARK  214  A    between atoms: _532  and  _533
REMARK  215  A    between atoms: _538  and  _539
REMARK  216  A    between atoms: _541  and  _543
REMARK  217  A    between atoms: _543  and  _544
REMARK  218  A    between atoms: _546  and  _548
REMARK  219  A    between atoms: _548  and  _549
REMARK  220  A    between atoms: _552  and  _554
REMARK  221  A    between atoms: _554  and  _555
REMARK  222  A    between atoms: _554  and  _557
REMARK  223  A    between atoms: _559  and  _561
REMARK  224  A    between atoms: _561  and  _562
REMARK  225  A    between atoms: _561  and  _564
REMARK  226  A    between atoms: _564  and  _565
REMARK  227  A    between atoms: _570  and  _571
REMARK  228  A    between atoms: _573  and  _575
REMARK  229  A    between atoms: _575  and  _576
REMARK  230  A    between atoms: _575  and  _578
REMARK  231  A    between atoms: _578  and  _579
REMARK  232  A    between atoms: _584  and  _586
REMARK  233  A    between atoms: _586  and  _587
REMARK  234  A    between atoms: _586  and  _589
REMARK  235  A    between atoms: _589  and  _590
REMARK  236  A    between atoms: _596  and  _598
REMARK  237  A    between atoms: _598  and  _599
REMARK  238  A    between atoms: _602  and  _604
REMARK  239  A    between atoms: _604  and  _605
REMARK  240  A    between atoms: _607  and  _609
REMARK  241  A    between atoms: _609  and  _610
REMARK  242  A    between atoms: _609  and  _612
REMARK  243  A    between atoms: _612  and  _613
REMARK  244  A    between atoms: _618  and  _619
REMARK  245  A    between atoms: _621  and  _623
REMARK  246  A    between atoms: _623  and  _624
REMARK  247  A    between atoms: _623  and  _626
REMARK  248  A    between atoms: _626  and  _627
REMARK  249  A    between atoms: _629  and  _631
REMARK  250  A    between atoms: _631  and  _632
REMARK  251  A    between atoms: _634  and  _636
REMARK  252  A    between atoms: _636  and  _637
REMARK                            x       y       z     vdW  Elec       q    Type
REMARK                         _______ _______ _______ _____ _____    ______ ____
ROOT
ATOM      1  CB  HIS A   1      23.718   9.233 -26.185  0.00  0.00    +0.072 C 
ENDROOT
BRANCH   1   2
ATOM      2  CG  HIS A   1      24.806   8.264 -25.837  0.00  0.00    +0.082 A 
ATOM      3  ND1 HIS A   1      26.045   8.670 -25.395  0.00  0.00    -0.227 NA
ATOM      4  CE1 HIS A   1      26.801   7.608 -25.181  0.00  0.00    +0.199 A 
ATOM      5  NE2 HIS A   1      26.094   6.527 -25.467  0.00  0.00    -0.221 NA
ATOM      6  CD2 HIS A   1      24.850   6.910 -25.894  0.00  0.00    +0.115 A 
ENDBRANCH   1   2
BRANCH   1   7
ATOM      7  CA  HIS A   1      22.927   9.731 -24.987  0.00  0.00    +0.139 C 
BRANCH   7   8
ATOM      8  N   HIS A   1      22.349   8.594 -24.286  0.00  0.00    -0.239 NA
ATOM      9  H   HIS A   1      21.575   8.068 -24.740  0.00  0.00    +0.142 HD
ENDBRANCH   7   8
BRANCH   7  10
ATOM     10  C   HIS A   1      21.939  10.770 -25.486  0.00  0.00    +0.224 C 
ATOM     11  O   HIS A   1      22.340  11.881 -25.826  0.00  0.00    -0.287 OA
ENDBRANCH   7  10
ENDBRANCH   1   7
TORSDOF 4
REMARK  Name = ../refined-set-2016/3hkw/3hkw_pocket.pdb
REMARK  252 active torsions:
REMARK  status: ('A' for Active; 'I' for Inactive)
REMARK    1  A    between atoms: _1  and  _3
REMARK    2  A    between atoms: _3  and  _4
REMARK    3  A    between atoms: _3  and  _6
REMARK    4  A    between atoms: _6  and  _7
REMARK    5  A    between atoms: _7  and  _8
REMARK    6  A    between atoms: _8  and  _9
REMARK    7  A    between atoms: _9  and  _10
REMARK    8  A    between atoms: _14  and  _16
REMARK    9  A    between atoms: _16  and  _17
REMARK   10  A    between atoms: _16  and  _19
REMARK   11  A    between atoms: _19  and  _20
REMARK   12  A    between atoms: _20  and  _21
REMARK   13  A    between atoms: _24  and  _26
REMARK   14  A    between atoms: _26  and  _27
REMARK   15  A    between atoms: _26  and  _29
REMARK   16  A    between atoms: _29  and  _30
REMARK   17  A    between atoms: _30  and  _31
REMARK   18  A    between atoms: _31  and  _32
REMARK   19  A    between atoms: _41  and  _43
REMARK   20  A    between atoms: _43  and  _44
REMARK   21  A    between atoms: _46  and  _48
REMARK   22  A    between atoms: _48  and  _49
REMARK   23  A    between atoms: _48  and  _51
REMARK   24  A    between atoms: _51  and  _52
REMARK   25  A    between atoms: _58  and  _60
REMARK   26  A    between atoms: _60  and  _61
REMARK   27  A    between atoms: _60  and  _63
REMARK   28  A    between atoms: _63  and  _64
REMARK   29  A    between atoms: _69  and  _70
REMARK   30  A    between atoms: _72  and  _74
REMARK   31  A    between atoms: _74  and  _75
REMARK   32  A    between atoms: _74  and  _77
REMARK   33  A    between atoms: _77  and  _78
REMARK   34  A    between atoms: _81  and  _82
REMARK   35  A    between atoms: _87  and  _89
REMARK   36  A    between atoms: _89  and  _90
REMARK   37  A    between atoms: _92  and  _94
REMARK   38  A    between atoms: _94  and  _95
REMARK   39  A    between atoms: _94  and  _97
REMARK   40  A    between atoms: _97  and  _98
REMARK   41  A    between atoms: _98  and  _99
REMARK   42  A    between atoms: _104  and  _106
REMARK   43  A    between atoms: _106  and  _107
REMARK   44  A    between atoms: _106  and  _109
REMARK   45  A    between atoms: _109  and  _110
REMARK   46  A    between atoms: _110  and  _111
REMARK   47  A    between atoms: _111  and  _112
REMARK   48  A    between atoms: _121  and  _123
REMARK   49  A    between atoms: _123  and  _124
REMARK   50  A    between atoms: _123  and  _126
REMARK   51  A    between atoms: _129  and  _131
REMARK   52  A    between atoms: _131  and  _132
REMARK   53  A    between atoms: _131  and  _134
REMARK   54  A    between atoms: _134  and  _135
REMARK   55  A    between atoms: _138  and  _140
REMARK   56  A    between atoms: _140  and  _141
REMARK   57  A    between atoms: _140  and  _143
REMARK   58  A    between atoms: _143  and  _144
REMARK   59  A    between atoms: _147  and  _149
REMARK   60  A    between atoms: _149  and  _150
REMARK   61  A    between atoms: _149  and  _152
REMARK   62  A    between atoms: _152  and  _153
REMARK   63  A    between atoms: _155  and  _157
REMARK   64  A    between atoms: _157  and  _158
REMARK   65  A    between atoms: _157  and  _160
REMARK   66  A    between atoms: _160  and  _161
REMARK   67  A    between atoms: _164  and  _166
REMARK   68  A    between atoms: _166  and  _167
REMARK   69  A    between atoms: _166  and  _169
REMARK   70  A    between atoms: _169  and  _170
REMARK   71  A    between atoms: _172  and  _174
REMARK   72  A    between atoms: _174  and  _175
REMARK   73  A    between atoms: _174  and  _177
REMARK   74  A    between atoms: _177  and  _178
REMARK   75  A    between atoms: _183  and  _185
REMARK   76  A    between atoms: _185  and  _186
REMARK   77  A    between atoms: _185  and  _188
REMARK   78  A    between atoms: _188  and  _189
REMARK   79  A    between atoms: _192  and  _194
REMARK   80  A    between atoms: _194  and  _195
REMARK   81  A    between atoms: _194  and  _197
REMARK   82  A    between atoms: _199  and  _201
REMARK   83  A    between atoms: _201  and  _202
REMARK   84  A    between atoms: _204  and  _206
REMARK   85  A    between atoms: _206  and  _207
REMARK   86  A    between atoms: _206  and  _209
REMARK   87  A    between atoms: _209  and  _210
REMARK   88  A    between atoms: _213  and  _215
REMARK   89  A    between atoms: _215  and  _216
REMARK   90  A    between atoms: _215  and  _218
REMARK   91  A    between atoms: _218  and  _219
REMARK   92  A    between atoms: _222  and  _224
REMARK   93  A    between atoms: _224  and  _225
REMARK   94  A    between atoms: _224  and  _227
REMARK   95  A    between atoms: _227  and  _228
REMARK   96  A    between atoms: _230  and  _232
REMARK   97  A    between atoms: _232  and  _233
REMARK   98  A    between atoms: _232  and  _235
REMARK   99  A    between atoms: _237  and  _239
REMARK  100  A    between atoms: _239  and  _240
REMARK  101  A    between atoms: _239  and  _242
REMARK  102  A    between atoms: _242  and  _243
REMARK  103  A    between atoms: _245  and  _247
REMARK  104  A    between atoms: _247  and  _248
REMARK  105  A    between atoms: _247  and  _250
REMARK  106  A    between atoms: _250  and  _251
REMARK  107  A    between atoms: _253  and  _255
REMARK  108  A    between atoms: _255  and  _256
REMARK  109  A    between atoms: _255  and  _258
REMARK  110  A    between atoms: _258  and  _259
REMARK  111  A    between atoms: _264  and  _266
REMARK  112  A    between atoms: _266  and  _267
REMARK  113  A    between atoms: _266  and  _269
REMARK  114  A    between atoms: _269  and  _270
REMARK  115  A    between atoms: _275  and  _276
REMARK  116  A    between atoms: _278  and  _280
REMARK  117  A    between atoms: _280  and  _281
REMARK  118  A    between atoms: _280  and  _283
REMARK  119  A    between atoms: _283  and  _284
REMARK  120  A    between atoms: _287  and  _289
REMARK  121  A    between atoms: _289  and  _290
REMARK  122  A    between atoms: _289  and  _292
REMARK  123  A    between atoms: _292  and  _293
REMARK  124  A    between atoms: _296  and  _298
REMARK  125  A    between atoms: _298  and  _299
REMARK  126  A    between atoms: _298  and  _301
REMARK  127  A    between atoms: _301  and  _302
REMARK  128  A    between atoms: _302  and  _303
REMARK  129  A    between atoms: _303  and  _304
REMARK  130  A    between atoms: _313  and  _315
REMARK  131  A    between atoms: _315  and  _316
REMARK  132  A    between atoms: _315  and  _318
REMARK  133  A    between atoms: _318  and  _319
REMARK  134  A    between atoms: _323  and  _324
REMARK  135  A    between atoms: _329  and  _331
REMARK  136  A    between atoms: _331  and  _332
REMARK  137  A    between atoms: _331  and  _334
REMARK  138  A    between atoms: _334  and  _335
REMARK  139  A    between atoms: _335  and  _336
REMARK  140  A    between atoms: _336  and  _337
REMARK  141  A    between atoms: _346  and  _348
REMARK  142  A    between atoms: _348  and  _349
REMARK  143  A    between atoms: _348  and  _351
REMARK  144  A    between atoms: _351  and  _352
REMARK  145  A    between atoms: _352  and  _353
REMARK  146  A    between atoms: _356  and  _358
REMARK  147  A    between atoms: _358  and  _359
REMARK  148  A    between atoms: _358  and  _361
REMARK  149  A    between atoms: _364  and  _366
REMARK  150  A    between atoms: _366  and  _367
REMARK  151  A    between atoms: _366  and  _369
REMARK  152  A    between atoms: _369  and  _370
REMARK  153  A    between atoms: _375  and  _377
REMARK  154  A    between atoms: _377  and  _378
REMARK  155  A    between atoms: _377  and  _380
REMARK  156  A    between atoms: _380  and  _381
REMARK  157  A    between atoms: _383  and  _385
REMARK  158  A    between atoms: _385  and  _386
REMARK  159  A    between atoms: _385  and  _388
REMARK  160  A    between atoms: _388  and  _389
REMARK  161  A    between atoms: _399  and  _401
REMARK  162  A    between atoms: _401  and  _402
REMARK  163  A    between atoms: _401  and  _404
REMARK  164  A    between atoms: _404  and  _405
REMARK  165  A    between atoms: _408  and  _410
REMARK  166  A    between atoms: _410  and  _411
REMARK  167  A    between atoms: _413  and  _415
REMARK  168  A    between atoms: _415  and  _416
REMARK  169  A    between atoms: _415  and  _418
REMARK  170  A    between atoms: _418  and  _419
REMARK  171  A    between atoms: _424  and  _426
REMARK  172  A    between atoms: _426  and  _427
REMARK  173  A    between atoms: _426  and  _429
REMARK  174  A    between atoms: _429  and  _430
REMARK  175  A    between atoms: _433  and  _435
REMARK  176  A    between atoms: _435  and  _436
REMARK  177  A    between atoms: _435  and  _438
REMARK  178  A    between atoms: _438  and  _439
REMARK  179  A    between atoms: _442  and  _444
REMARK  180  A    between atoms: _444  and  _445
REMARK  181  A    between atoms: _444  and  _447
REMARK  182  A    between atoms: _447  and  _448
REMARK  183  A    between atoms: _448  and  _449
REMARK  184  A    between atoms: _451  and  _453
REMARK  185  A    between atoms: _453  and  _454
REMARK  186  A    between atoms: _453  and  _456
REMARK  187  A    between atoms: _456  and  _457
REMARK  188  A    between atoms: _463  and  _465
REMARK  189  A    between atoms: _465  and  _466
REMARK  190  A    between atoms: _470  and  _471
REMARK  191  A    between atoms: _476  and  _478
REMARK  192  A    between atoms: _478  and  _479
REMARK  193  A    between atoms: _478  and  _481
REMARK  194  A    between atoms: _481  and  _482
REMARK  195  A    between atoms: _485  and  _487
REMARK  196  A    between atoms: _487  and  _488
REMARK  197  A    between atoms: _487  and  _490
REMARK  198  A    between atoms: _490  and  _491
REMARK  199  A    between atoms: _501  and  _503
REMARK  200  A    between atoms: _503  and  _504
REMARK  201  A    between atoms: _503  and  _506
REMARK  202  A    between atoms: _508  and  _510
REMARK  203  A    between atoms: _510  and  _511
REMARK  204  A    between atoms: _510  and  _513
REMARK  205  A    between atoms: _513  and  _514
REMARK  206  A    between atoms: _514  and  _515
REMARK  207  A    between atoms: _518  and  _520
REMARK  208  A    between atoms: _520  and  _521
REMARK  209  A    between atoms: _520  and  _523
REMARK  210  A    between atoms: _523  and  _524
REMARK  211  A    between atoms: _527  and  _529
REMARK  212  A    between atoms: _529  and  _530
REMARK  213  A    between atoms: _529  and  _532
REMARK  214  A    between atoms: _532  and  _533
REMARK  215  A    between atoms: _538  and  _539
REMARK  216  A    between atoms: _541  and  _543
REMARK  217  A    between atoms: _543  and  _544
REMARK  218  A    between atoms: _546  and  _548
REMARK  219  A    between atoms: _548  and  _549
REMARK  220  A    between atoms: _552  and  _554
REMARK  221  A    between atoms: _554  and  _555
REMARK  222  A    between atoms: _554  and  _557
REMARK  223  A    between atoms: _559  and  _561
REMARK  224  A    between atoms: _561  and  _562
REMARK  225  A    between atoms: _561  and  _564
REMARK  226  A    between atoms: _564  and  _565
REMARK  227  A    between atoms: _570  and  _571
REMARK  228  A    between atoms: _573  and  _575
REMARK  229  A    between atoms: _575  and  _576
REMARK  230  A    between atoms: _575  and  _578
REMARK  231  A    between atoms: _578  and  _579
REMARK  232  A    between atoms: _584  and  _586
REMARK  233  A    between atoms: _586  and  _587
REMARK  234  A    between atoms: _586  and  _589
REMARK  235  A    between atoms: _589  and  _590
REMARK  236  A    between atoms: _596  and  _598
REMARK  237  A    between atoms: _598  and  _599
REMARK  238  A    between atoms: _602  and  _604
REMARK  239  A    between atoms: _604  and  _605
REMARK  240  A    between atoms: _607  and  _609
REMARK  241  A    between atoms: _609  and  _610
REMARK  242  A    between atoms: _609  and  _612
REMARK  243  A    between atoms: _612  and  _613
REMARK  244  A    between atoms: _618  and  _619
REMARK  245  A    between atoms: _621  and  _623
REMARK  246  A    between atoms: _623  and  _624
REMARK  247  A    between atoms: _623  and  _626
REMARK  248  A    between atoms: _626  and  _627
REMARK  249  A    between atoms: _629  and  _631
REMARK  250  A    between atoms: _631  and  _632
REMARK  251  A    between atoms: _634  and  _636
REMARK  252  A    between atoms: _636  and  _637
REMARK                            x       y       z     vdW  Elec       q    Type
REMARK                         _______ _______ _______ _____ _____    ______ ____
ROOT
ATOM      1  CB  PHE A   1      24.630   4.583 -14.516  0.00  0.00    +0.051 C 
ENDROOT
BRANCH   1   2
ATOM      2  CG  PHE A   1      24.719   4.299 -15.982  0.00  0.00    -0.020 A 
ATOM      3  CD2 PHE A   1      25.922   3.924 -16.552  0.00  0.00    -0.004 A 
ATOM      4  CE2 PHE A   1      26.006   3.641 -17.887  0.00  0.00    -0.000 A 
ATOM      5  CZ  PHE A   1      24.878   3.701 -18.668  0.00  0.00    -0.000 A 
ATOM      6  CE1 PHE A   1      23.680   4.055 -18.118  0.00  0.00    -0.000 A 
ATOM      7  CD1 PHE A   1      23.594   4.351 -16.785  0.00  0.00    -0.004 A 
ENDBRANCH   1   2
BRANCH   1   8
ATOM      8  CA  PHE A   1      24.958   3.361 -13.661  0.00  0.00    +0.137 C 
BRANCH   8   9
ATOM      9  N   PHE A   1      24.122   2.228 -14.058  0.00  0.00    -0.239 NA
ATOM     10  H   PHE A   1      23.117   2.223 -13.791  0.00  0.00    +0.142 HD
ENDBRANCH   8   9
BRANCH   8  11
ATOM     11  C   PHE A   1      24.763   3.645 -12.197  0.00  0.00    +0.224 C 
ATOM     12  O   PHE A   1      24.320   4.718 -11.813  0.00  0.00    -0.287 OA
ENDBRANCH   8  11
ENDBRANCH   1   8
TORSDOF 4
REMARK  Name = ../refined-set-2016/3hkw/3hkw_pocket.pdb
REMARK  252 active torsions:
REMARK  status: ('A' for Active; 'I' for Inactive)
REMARK    1  A    between atoms: _1  and  _3
REMARK    2  A    between atoms: _3  and  _4
REMARK    3  A    between atoms: _3  and  _6
REMARK    4  A    between atoms: _6  and  _7
REMARK    5  A    between atoms: _7  and  _8
REMARK    6  A    between atoms: _8  and  _9
REMARK    7  A    between atoms: _9  and  _10
REMARK    8  A    between atoms: _14  and  _16
REMARK    9  A    between atoms: _16  and  _17
REMARK   10  A    between atoms: _16  and  _19
REMARK   11  A    between atoms: _19  and  _20
REMARK   12  A    between atoms: _20  and  _21
REMARK   13  A    between atoms: _24  and  _26
REMARK   14  A    between atoms: _26  and  _27
REMARK   15  A    between atoms: _26  and  _29
REMARK   16  A    between atoms: _29  and  _30
REMARK   17  A    between atoms: _30  and  _31
REMARK   18  A    between atoms: _31  and  _32
REMARK   19  A    between atoms: _41  and  _43
REMARK   20  A    between atoms: _43  and  _44
REMARK   21  A    between atoms: _46  and  _48
REMARK   22  A    between atoms: _48  and  _49
REMARK   23  A    between atoms: _48  and  _51
REMARK   24  A    between atoms: _51  and  _52
REMARK   25  A    between atoms: _58  and  _60
REMARK   26  A    between atoms: _60  and  _61
REMARK   27  A    between atoms: _60  and  _63
REMARK   28  A    between atoms: _63  and  _64
REMARK   29  A    between atoms: _69  and  _70
REMARK   30  A    between atoms: _72  and  _74
REMARK   31  A    between atoms: _74  and  _75
REMARK   32  A    between atoms: _74  and  _77
REMARK   33  A    between atoms: _77  and  _78
REMARK   34  A    between atoms: _81  and  _82
REMARK   35  A    between atoms: _87  and  _89
REMARK   36  A    between atoms: _89  and  _90
REMARK   37  A    between atoms: _92  and  _94
REMARK   38  A    between atoms: _94  and  _95
REMARK   39  A    between atoms: _94  and  _97
REMARK   40  A    between atoms: _97  and  _98
REMARK   41  A    between atoms: _98  and  _99
REMARK   42  A    between atoms: _104  and  _106
REMARK   43  A    between atoms: _106  and  _107
REMARK   44  A    between atoms: _106  and  _109
REMARK   45  A    between atoms: _109  and  _110
REMARK   46  A    between atoms: _110  and  _111
REMARK   47  A    between atoms: _111  and  _112
REMARK   48  A    between atoms: _121  and  _123
REMARK   49  A    between atoms: _123  and  _124
REMARK   50  A    between atoms: _123  and  _126
REMARK   51  A    between atoms: _129  and  _131
REMARK   52  A    between atoms: _131  and  _132
REMARK   53  A    between atoms: _131  and  _134
REMARK   54  A    between atoms: _134  and  _135
REMARK   55  A    between atoms: _138  and  _140
REMARK   56  A    between atoms: _140  and  _141
REMARK   57  A    between atoms: _140  and  _143
REMARK   58  A    between atoms: _143  and  _144
REMARK   59  A    between atoms: _147  and  _149
REMARK   60  A    between atoms: _149  and  _150
REMARK   61  A    between atoms: _149  and  _152
REMARK   62  A    between atoms: _152  and  _153
REMARK   63  A    between atoms: _155  and  _157
REMARK   64  A    between atoms: _157  and  _158
REMARK   65  A    between atoms: _157  and  _160
REMARK   66  A    between atoms: _160  and  _161
REMARK   67  A    between atoms: _164  and  _166
REMARK   68  A    between atoms: _166  and  _167
REMARK   69  A    between atoms: _166  and  _169
REMARK   70  A    between atoms: _169  and  _170
REMARK   71  A    between atoms: _172  and  _174
REMARK   72  A    between atoms: _174  and  _175
REMARK   73  A    between atoms: _174  and  _177
REMARK   74  A    between atoms: _177  and  _178
REMARK   75  A    between atoms: _183  and  _185
REMARK   76  A    between atoms: _185  and  _186
REMARK   77  A    between atoms: _185  and  _188
REMARK   78  A    between atoms: _188  and  _189
REMARK   79  A    between atoms: _192  and  _194
REMARK   80  A    between atoms: _194  and  _195
REMARK   81  A    between atoms: _194  and  _197
REMARK   82  A    between atoms: _199  and  _201
REMARK   83  A    between atoms: _201  and  _202
REMARK   84  A    between atoms: _204  and  _206
REMARK   85  A    between atoms: _206  and  _207
REMARK   86  A    between atoms: _206  and  _209
REMARK   87  A    between atoms: _209  and  _210
REMARK   88  A    between atoms: _213  and  _215
REMARK   89  A    between atoms: _215  and  _216
REMARK   90  A    between atoms: _215  and  _218
REMARK   91  A    between atoms: _218  and  _219
REMARK   92  A    between atoms: _222  and  _224
REMARK   93  A    between atoms: _224  and  _225
REMARK   94  A    between atoms: _224  and  _227
REMARK   95  A    between atoms: _227  and  _228
REMARK   96  A    between atoms: _230  and  _232
REMARK   97  A    between atoms: _232  and  _233
REMARK   98  A    between atoms: _232  and  _235
REMARK   99  A    between atoms: _237  and  _239
REMARK  100  A    between atoms: _239  and  _240
REMARK  101  A    between atoms: _239  and  _242
REMARK  102  A    between atoms: _242  and  _243
REMARK  103  A    between atoms: _245  and  _247
REMARK  104  A    between atoms: _247  and  _248
REMARK  105  A    between atoms: _247  and  _250
REMARK  106  A    between atoms: _250  and  _251
REMARK  107  A    between atoms: _253  and  _255
REMARK  108  A    between atoms: _255  and  _256
REMARK  109  A    between atoms: _255  and  _258
REMARK  110  A    between atoms: _258  and  _259
REMARK  111  A    between atoms: _264  and  _266
REMARK  112  A    between atoms: _266  and  _267
REMARK  113  A    between atoms: _266  and  _269
REMARK  114  A    between atoms: _269  and  _270
REMARK  115  A    between atoms: _275  and  _276
REMARK  116  A    between atoms: _278  and  _280
REMARK  117  A    between atoms: _280  and  _281
REMARK  118  A    between atoms: _280  and  _283
REMARK  119  A    between atoms: _283  and  _284
REMARK  120  A    between atoms: _287  and  _289
REMARK  121  A    between atoms: _289  and  _290
REMARK  122  A    between atoms: _289  and  _292
REMARK  123  A    between atoms: _292  and  _293
REMARK  124  A    between atoms: _296  and  _298
REMARK  125  A    between atoms: _298  and  _299
REMARK  126  A    between atoms: _298  and  _301
REMARK  127  A    between atoms: _301  and  _302
REMARK  128  A    between atoms: _302  and  _303
REMARK  129  A    between atoms: _303  and  _304
REMARK  130  A    between atoms: _313  and  _315
REMARK  131  A    between atoms: _315  and  _316
REMARK  132  A    between atoms: _315  and  _318
REMARK  133  A    between atoms: _318  and  _319
REMARK  134  A    between atoms: _323  and  _324
REMARK  135  A    between atoms: _329  and  _331
REMARK  136  A    between atoms: _331  and  _332
REMARK  137  A    between atoms: _331  and  _334
REMARK  138  A    between atoms: _334  and  _335
REMARK  139  A    between atoms: _335  and  _336
REMARK  140  A    between atoms: _336  and  _337
REMARK  141  A    between atoms: _346  and  _348
REMARK  142  A    between atoms: _348  and  _349
REMARK  143  A    between atoms: _348  and  _351
REMARK  144  A    between atoms: _351  and  _352
REMARK  145  A    between atoms: _352  and  _353
REMARK  146  A    between atoms: _356  and  _358
REMARK  147  A    between atoms: _358  and  _359
REMARK  148  A    between atoms: _358  and  _361
REMARK  149  A    between atoms: _364  and  _366
REMARK  150  A    between atoms: _366  and  _367
REMARK  151  A    between atoms: _366  and  _369
REMARK  152  A    between atoms: _369  and  _370
REMARK  153  A    between atoms: _375  and  _377
REMARK  154  A    between atoms: _377  and  _378
REMARK  155  A    between atoms: _377  and  _380
REMARK  156  A    between atoms: _380  and  _381
REMARK  157  A    between atoms: _383  and  _385
REMARK  158  A    between atoms: _385  and  _386
REMARK  159  A    between atoms: _385  and  _388
REMARK  160  A    between atoms: _388  and  _389
REMARK  161  A    between atoms: _399  and  _401
REMARK  162  A    between atoms: _401  and  _402
REMARK  163  A    between atoms: _401  and  _404
REMARK  164  A    between atoms: _404  and  _405
REMARK  165  A    between atoms: _408  and  _410
REMARK  166  A    between atoms: _410  and  _411
REMARK  167  A    between atoms: _413  and  _415
REMARK  168  A    between atoms: _415  and  _416
REMARK  169  A    between atoms: _415  and  _418
REMARK  170  A    between atoms: _418  and  _419
REMARK  171  A    between atoms: _424  and  _426
REMARK  172  A    between atoms: _426  and  _427
REMARK  173  A    between atoms: _426  and  _429
REMARK  174  A    between atoms: _429  and  _430
REMARK  175  A    between atoms: _433  and  _435
REMARK  176  A    between atoms: _435  and  _436
REMARK  177  A    between atoms: _435  and  _438
REMARK  178  A    between atoms: _438  and  _439
REMARK  179  A    between atoms: _442  and  _444
REMARK  180  A    between atoms: _444  and  _445
REMARK  181  A    between atoms: _444  and  _447
REMARK  182  A    between atoms: _447  and  _448
REMARK  183  A    between atoms: _448  and  _449
REMARK  184  A    between atoms: _451  and  _453
REMARK  185  A    between atoms: _453  and  _454
REMARK  186  A    between atoms: _453  and  _456
REMARK  187  A    between atoms: _456  and  _457
REMARK  188  A    between atoms: _463  and  _465
REMARK  189  A    between atoms: _465  and  _466
REMARK  190  A    between atoms: _470  and  _471
REMARK  191  A    between atoms: _476  and  _478
REMARK  192  A    between atoms: _478  and  _479
REMARK  193  A    between atoms: _478  and  _481
REMARK  194  A    between atoms: _481  and  _482
REMARK  195  A    between atoms: _485  and  _487
REMARK  196  A    between atoms: _487  and  _488
REMARK  197  A    between atoms: _487  and  _490
REMARK  198  A    between atoms: _490  and  _491
REMARK  199  A    between atoms: _501  and  _503
REMARK  200  A    between atoms: _503  and  _504
REMARK  201  A    between atoms: _503  and  _506
REMARK  202  A    between atoms: _508  and  _510
REMARK  203  A    between atoms: _510  and  _511
REMARK  204  A    between atoms: _510  and  _513
REMARK  205  A    between atoms: _513  and  _514
REMARK  206  A    between atoms: _514  and  _515
REMARK  207  A    between atoms: _518  and  _520
REMARK  208  A    between atoms: _520  and  _521
REMARK  209  A    between atoms: _520  and  _523
REMARK  210  A    between atoms: _523  and  _524
REMARK  211  A    between atoms: _527  and  _529
REMARK  212  A    between atoms: _529  and  _530
REMARK  213  A    between atoms: _529  and  _532
REMARK  214  A    between atoms: _532  and  _533
REMARK  215  A    between atoms: _538  and  _539
REMARK  216  A    between atoms: _541  and  _543
REMARK  217  A    between atoms: _543  and  _544
REMARK  218  A    between atoms: _546  and  _548
REMARK  219  A    between atoms: _548  and  _549
REMARK  220  A    between atoms: _552  and  _554
REMARK  221  A    between atoms: _554  and  _555
REMARK  222  A    between atoms: _554  and  _557
REMARK  223  A    between atoms: _559  and  _561
REMARK  224  A    between atoms: _561  and  _562
REMARK  225  A    between atoms: _561  and  _564
REMARK  226  A    between atoms: _564  and  _565
REMARK  227  A    between atoms: _570  and  _571
REMARK  228  A    between atoms: _573  and  _575
REMARK  229  A    between atoms: _575  and  _576
REMARK  230  A    between atoms: _575  and  _578
REMARK  231  A    between atoms: _578  and  _579
REMARK  232  A    between atoms: _584  and  _586
REMARK  233  A    between atoms: _586  and  _587
REMARK  234  A    between atoms: _586  and  _589
REMARK  235  A    between atoms: _589  and  _590
REMARK  236  A    between atoms: _596  and  _598
REMARK  237  A    between atoms: _598  and  _599
REMARK  238  A    between atoms: _602  and  _604
REMARK  239  A    between atoms: _604  and  _605
REMARK  240  A    between atoms: _607  and  _609
REMARK  241  A    between atoms: _609  and  _610
REMARK  242  A    between atoms: _609  and  _612
REMARK  243  A    between atoms: _612  and  _613
REMARK  244  A    between atoms: _618  and  _619
REMARK  245  A    between atoms: _621  and  _623
REMARK  246  A    between atoms: _623  and  _624
REMARK  247  A    between atoms: _623  and  _626
REMARK  248  A    between atoms: _626  and  _627
REMARK  249  A    between atoms: _629  and  _631
REMARK  250  A    between atoms: _631  and  _632
REMARK  251  A    between atoms: _634  and  _636
REMARK  252  A    between atoms: _636  and  _637
REMARK                            x       y       z     vdW  Elec       q    Type
REMARK                         _______ _______ _______ _____ _____    ______ ____
ROOT
ATOM      1  CA  TYR A   3      32.765  -3.142 -10.765  0.00  0.00    +0.153 C 
ENDROOT
BRANCH   1   4
ATOM      2  C   GLY A   2      32.180  -0.838 -10.304  0.00  0.00    +0.243 C 
ATOM      3  O   GLY A   2      32.115  -1.050  -9.097  0.00  0.00    -0.273 OA
ATOM      4  N   TYR A   3      32.495  -1.778 -11.183  0.00  0.00    -0.297 N 
ATOM      5  H   TYR A   3      32.550  -1.534 -12.192  0.00  0.00    +0.150 HD
BRANCH   2   6
ATOM      6  CA  GLY A   2      31.870   0.532 -10.864  0.00  0.00    +0.176 C 
BRANCH   6   8
ATOM      7  C   ALA A   1      29.565   1.083 -10.302  0.00  0.00    +0.238 C 
ATOM      8  N   GLY A   2      30.867   1.191 -10.044  0.00  0.00    -0.296 N 
ATOM      9  H   GLY A   2      31.175   1.763  -9.232  0.00  0.00    +0.150 HD
ATOM     10  O   ALA A   1      29.124   0.518 -11.309  0.00  0.00    -0.274 OA
BRANCH   7  11
ATOM     11  CA  ALA A   1      28.617   1.694  -9.272  0.00  0.00    +0.145 C 
ATOM     12  CB  ALA A   1      28.599   0.851  -8.014  0.00  0.00    +0.028 C 
BRANCH  11  13
ATOM     13  N   ALA A   1      27.262   1.811  -9.789  0.00  0.00    -0.238 NA
ATOM     14  H   ALA A   1      26.937   1.138 -10.512  0.00  0.00    +0.142 HD
ENDBRANCH  11  13
ENDBRANCH   7  11
ENDBRANCH   6   8
ENDBRANCH   2   6
ENDBRANCH   1   4
BRANCH   1  15
ATOM     15  C   TYR A   3      33.932  -3.803 -11.487  0.00  0.00    +0.241 C 
ATOM     16  O   TYR A   3      34.060  -5.027 -11.434  0.00  0.00    -0.273 OA
ATOM     17  N   SER A   4      34.798  -3.026 -12.143  0.00  0.00    -0.295 N 
ATOM     18  H   SER A   4      34.702  -1.991 -12.116  0.00  0.00    +0.150 HD
BRANCH  17  19
ATOM     19  CA  SER A   4      35.882  -3.648 -12.899  0.00  0.00    +0.178 C 
BRANCH  19  20
ATOM     20  C   SER A   4      36.732  -4.511 -11.970  0.00  0.00    +0.243 C 
ATOM     21  O   SER A   4      37.077  -4.083 -10.865  0.00  0.00    -0.273 OA
ATOM     22  N   GLY A   5      37.007  -5.748 -12.398  0.00  0.00    -0.295 N 
ATOM     23  H   GLY A   5      36.666  -6.040 -13.336  0.00  0.00    +0.150 HD
BRANCH  22  24
ATOM     24  CA  GLY A   5      37.769  -6.705 -11.596  0.00  0.00    +0.176 C 
BRANCH  24  25
ATOM     25  C   GLY A   5      36.932  -7.490 -10.588  0.00  0.00    +0.243 C 
ATOM     26  O   GLY A   5      37.401  -8.468 -10.014  0.00  0.00    -0.273 OA
ATOM     27  N   GLY A   6      35.680  -7.087 -10.391  0.00  0.00    -0.296 N 
ATOM     28  H   GLY A   6      35.273  -6.372 -11.027  0.00  0.00    +0.150 HD
BRANCH  27  29
ATOM     29  CA  GLY A   6      34.862  -7.619  -9.309  0.00  0.00    +0.163 C 
BRANCH  29  30
ATOM     30  C   GLY A   6      33.941  -8.762  -9.656  0.00  0.00    +0.229 C 
ATOM     31  O   GLY A   6      33.121  -9.157  -8.824  0.00  0.00    -0.286 OA
ENDBRANCH  29  30
ENDBRANCH  27  29
ENDBRANCH  24  25
ENDBRANCH  22  24
ENDBRANCH  19  20
BRANCH  19  32
ATOM     32  CB  SER A   4      36.732  -2.621 -13.633  0.00  0.00    +0.166 C 
BRANCH  32  33
ATOM     33  OG  SER A   4      37.735  -3.280 -14.386  0.00  0.00    -0.380 OA
ATOM     34  H   SER A   4      38.310  -3.807 -13.777  0.00  0.00    +0.211 HD
ENDBRANCH  32  33
ENDBRANCH  19  32
ENDBRANCH  17  19
ENDBRANCH   1  15
BRANCH   1  35
ATOM     35  CB  TYR A   3      31.523  -3.997 -10.968  0.00  0.00    +0.055 C 
BRANCH  35  36
ATOM     36  CG  TYR A   3      30.290  -3.560 -10.196  0.00  0.00    -0.020 A 
ATOM     37  CD2 TYR A   3      30.109  -3.915  -8.860  0.00  0.00    -0.001 A 
ATOM     38  CE2 TYR A   3      28.959  -3.537  -8.162  0.00  0.00    +0.036 A 
ATOM     39  CZ  TYR A   3      27.968  -2.806  -8.803  0.00  0.00    +0.134 A 
ATOM     40  CE1 TYR A   3      28.138  -2.443 -10.123  0.00  0.00    +0.036 A 
ATOM     41  CD1 TYR A   3      29.280  -2.824 -10.816  0.00  0.00    -0.001 A 
BRANCH  39  42
ATOM     42  OH  TYR A   3      26.817  -2.411  -8.139  0.00  0.00    -0.506 OA
ATOM     43  HH  TYR A   3      26.843  -2.746  -7.208  0.00  0.00    +0.292 HD
ENDBRANCH  39  42
ENDBRANCH  35  36
ENDBRANCH   1  35
TORSDOF 17
REMARK  Name = ../refined-set-2016/3hkw/3hkw_pocket.pdb
REMARK  252 active torsions:
REMARK  status: ('A' for Active; 'I' for Inactive)
REMARK    1  A    between atoms: _1  and  _3
REMARK    2  A    between atoms: _3  and  _4
REMARK    3  A    between atoms: _3  and  _6
REMARK    4  A    between atoms: _6  and  _7
REMARK    5  A    between atoms: _7  and  _8
REMARK    6  A    between atoms: _8  and  _9
REMARK    7  A    between atoms: _9  and  _10
REMARK    8  A    between atoms: _14  and  _16
REMARK    9  A    between atoms: _16  and  _17
REMARK   10  A    between atoms: _16  and  _19
REMARK   11  A    between atoms: _19  and  _20
REMARK   12  A    between atoms: _20  and  _21
REMARK   13  A    between atoms: _24  and  _26
REMARK   14  A    between atoms: _26  and  _27
REMARK   15  A    between atoms: _26  and  _29
REMARK   16  A    between atoms: _29  and  _30
REMARK   17  A    between atoms: _30  and  _31
REMARK   18  A    between atoms: _31  and  _32
REMARK   19  A    between atoms: _41  and  _43
REMARK   20  A    between atoms: _43  and  _44
REMARK   21  A    between atoms: _46  and  _48
REMARK   22  A    between atoms: _48  and  _49
REMARK   23  A    between atoms: _48  and  _51
REMARK   24  A    between atoms: _51  and  _52
REMARK   25  A    between atoms: _58  and  _60
REMARK   26  A    between atoms: _60  and  _61
REMARK   27  A    between atoms: _60  and  _63
REMARK   28  A    between atoms: _63  and  _64
REMARK   29  A    between atoms: _69  and  _70
REMARK   30  A    between atoms: _72  and  _74
REMARK   31  A    between atoms: _74  and  _75
REMARK   32  A    between atoms: _74  and  _77
REMARK   33  A    between atoms: _77  and  _78
REMARK   34  A    between atoms: _81  and  _82
REMARK   35  A    between atoms: _87  and  _89
REMARK   36  A    between atoms: _89  and  _90
REMARK   37  A    between atoms: _92  and  _94
REMARK   38  A    between atoms: _94  and  _95
REMARK   39  A    between atoms: _94  and  _97
REMARK   40  A    between atoms: _97  and  _98
REMARK   41  A    between atoms: _98  and  _99
REMARK   42  A    between atoms: _104  and  _106
REMARK   43  A    between atoms: _106  and  _107
REMARK   44  A    between atoms: _106  and  _109
REMARK   45  A    between atoms: _109  and  _110
REMARK   46  A    between atoms: _110  and  _111
REMARK   47  A    between atoms: _111  and  _112
REMARK   48  A    between atoms: _121  and  _123
REMARK   49  A    between atoms: _123  and  _124
REMARK   50  A    between atoms: _123  and  _126
REMARK   51  A    between atoms: _129  and  _131
REMARK   52  A    between atoms: _131  and  _132
REMARK   53  A    between atoms: _131  and  _134
REMARK   54  A    between atoms: _134  and  _135
REMARK   55  A    between atoms: _138  and  _140
REMARK   56  A    between atoms: _140  and  _141
REMARK   57  A    between atoms: _140  and  _143
REMARK   58  A    between atoms: _143  and  _144
REMARK   59  A    between atoms: _147  and  _149
REMARK   60  A    between atoms: _149  and  _150
REMARK   61  A    between atoms: _149  and  _152
REMARK   62  A    between atoms: _152  and  _153
REMARK   63  A    between atoms: _155  and  _157
REMARK   64  A    between atoms: _157  and  _158
REMARK   65  A    between atoms: _157  and  _160
REMARK   66  A    between atoms: _160  and  _161
REMARK   67  A    between atoms: _164  and  _166
REMARK   68  A    between atoms: _166  and  _167
REMARK   69  A    between atoms: _166  and  _169
REMARK   70  A    between atoms: _169  and  _170
REMARK   71  A    between atoms: _172  and  _174
REMARK   72  A    between atoms: _174  and  _175
REMARK   73  A    between atoms: _174  and  _177
REMARK   74  A    between atoms: _177  and  _178
REMARK   75  A    between atoms: _183  and  _185
REMARK   76  A    between atoms: _185  and  _186
REMARK   77  A    between atoms: _185  and  _188
REMARK   78  A    between atoms: _188  and  _189
REMARK   79  A    between atoms: _192  and  _194
REMARK   80  A    between atoms: _194  and  _195
REMARK   81  A    between atoms: _194  and  _197
REMARK   82  A    between atoms: _199  and  _201
REMARK   83  A    between atoms: _201  and  _202
REMARK   84  A    between atoms: _204  and  _206
REMARK   85  A    between atoms: _206  and  _207
REMARK   86  A    between atoms: _206  and  _209
REMARK   87  A    between atoms: _209  and  _210
REMARK   88  A    between atoms: _213  and  _215
REMARK   89  A    between atoms: _215  and  _216
REMARK   90  A    between atoms: _215  and  _218
REMARK   91  A    between atoms: _218  and  _219
REMARK   92  A    between atoms: _222  and  _224
REMARK   93  A    between atoms: _224  and  _225
REMARK   94  A    between atoms: _224  and  _227
REMARK   95  A    between atoms: _227  and  _228
REMARK   96  A    between atoms: _230  and  _232
REMARK   97  A    between atoms: _232  and  _233
REMARK   98  A    between atoms: _232  and  _235
REMARK   99  A    between atoms: _237  and  _239
REMARK  100  A    between atoms: _239  and  _240
REMARK  101  A    between atoms: _239  and  _242
REMARK  102  A    between atoms: _242  and  _243
REMARK  103  A    between atoms: _245  and  _247
REMARK  104  A    between atoms: _247  and  _248
REMARK  105  A    between atoms: _247  and  _250
REMARK  106  A    between atoms: _250  and  _251
REMARK  107  A    between atoms: _253  and  _255
REMARK  108  A    between atoms: _255  and  _256
REMARK  109  A    between atoms: _255  and  _258
REMARK  110  A    between atoms: _258  and  _259
REMARK  111  A    between atoms: _264  and  _266
REMARK  112  A    between atoms: _266  and  _267
REMARK  113  A    between atoms: _266  and  _269
REMARK  114  A    between atoms: _269  and  _270
REMARK  115  A    between atoms: _275  and  _276
REMARK  116  A    between atoms: _278  and  _280
REMARK  117  A    between atoms: _280  and  _281
REMARK  118  A    between atoms: _280  and  _283
REMARK  119  A    between atoms: _283  and  _284
REMARK  120  A    between atoms: _287  and  _289
REMARK  121  A    between atoms: _289  and  _290
REMARK  122  A    between atoms: _289  and  _292
REMARK  123  A    between atoms: _292  and  _293
REMARK  124  A    between atoms: _296  and  _298
REMARK  125  A    between atoms: _298  and  _299
REMARK  126  A    between atoms: _298  and  _301
REMARK  127  A    between atoms: _301  and  _302
REMARK  128  A    between atoms: _302  and  _303
REMARK  129  A    between atoms: _303  and  _304
REMARK  130  A    between atoms: _313  and  _315
REMARK  131  A    between atoms: _315  and  _316
REMARK  132  A    between atoms: _315  and  _318
REMARK  133  A    between atoms: _318  and  _319
REMARK  134  A    between atoms: _323  and  _324
REMARK  135  A    between atoms: _329  and  _331
REMARK  136  A    between atoms: _331  and  _332
REMARK  137  A    between atoms: _331  and  _334
REMARK  138  A    between atoms: _334  and  _335
REMARK  139  A    between atoms: _335  and  _336
REMARK  140  A    between atoms: _336  and  _337
REMARK  141  A    between atoms: _346  and  _348
REMARK  142  A    between atoms: _348  and  _349
REMARK  143  A    between atoms: _348  and  _351
REMARK  144  A    between atoms: _351  and  _352
REMARK  145  A    between atoms: _352  and  _353
REMARK  146  A    between atoms: _356  and  _358
REMARK  147  A    between atoms: _358  and  _359
REMARK  148  A    between atoms: _358  and  _361
REMARK  149  A    between atoms: _364  and  _366
REMARK  150  A    between atoms: _366  and  _367
REMARK  151  A    between atoms: _366  and  _369
REMARK  152  A    between atoms: _369  and  _370
REMARK  153  A    between atoms: _375  and  _377
REMARK  154  A    between atoms: _377  and  _378
REMARK  155  A    between atoms: _377  and  _380
REMARK  156  A    between atoms: _380  and  _381
REMARK  157  A    between atoms: _383  and  _385
REMARK  158  A    between atoms: _385  and  _386
REMARK  159  A    between atoms: _385  and  _388
REMARK  160  A    between atoms: _388  and  _389
REMARK  161  A    between atoms: _399  and  _401
REMARK  162  A    between atoms: _401  and  _402
REMARK  163  A    between atoms: _401  and  _404
REMARK  164  A    between atoms: _404  and  _405
REMARK  165  A    between atoms: _408  and  _410
REMARK  166  A    between atoms: _410  and  _411
REMARK  167  A    between atoms: _413  and  _415
REMARK  168  A    between atoms: _415  and  _416
REMARK  169  A    between atoms: _415  and  _418
REMARK  170  A    between atoms: _418  and  _419
REMARK  171  A    between atoms: _424  and  _426
REMARK  172  A    between atoms: _426  and  _427
REMARK  173  A    between atoms: _426  and  _429
REMARK  174  A    between atoms: _429  and  _430
REMARK  175  A    between atoms: _433  and  _435
REMARK  176  A    between atoms: _435  and  _436
REMARK  177  A    between atoms: _435  and  _438
REMARK  178  A    between atoms: _438  and  _439
REMARK  179  A    between atoms: _442  and  _444
REMARK  180  A    between atoms: _444  and  _445
REMARK  181  A    between atoms: _444  and  _447
REMARK  182  A    between atoms: _447  and  _448
REMARK  183  A    between atoms: _448  and  _449
REMARK  184  A    between atoms: _451  and  _453
REMARK  185  A    between atoms: _453  and  _454
REMARK  186  A    between atoms: _453  and  _456
REMARK  187  A    between atoms: _456  and  _457
REMARK  188  A    between atoms: _463  and  _465
REMARK  189  A    between atoms: _465  and  _466
REMARK  190  A    between atoms: _470  and  _471
REMARK  191  A    between atoms: _476  and  _478
REMARK  192  A    between atoms: _478  and  _479
REMARK  193  A    between atoms: _478  and  _481
REMARK  194  A    between atoms: _481  and  _482
REMARK  195  A    between atoms: _485  and  _487
REMARK  196  A    between atoms: _487  and  _488
REMARK  197  A    between atoms: _487  and  _490
REMARK  198  A    between atoms: _490  and  _491
REMARK  199  A    between atoms: _501  and  _503
REMARK  200  A    between atoms: _503  and  _504
REMARK  201  A    between atoms: _503  and  _506
REMARK  202  A    between atoms: _508  and  _510
REMARK  203  A    between atoms: _510  and  _511
REMARK  204  A    between atoms: _510  and  _513
REMARK  205  A    between atoms: _513  and  _514
REMARK  206  A    between atoms: _514  and  _515
REMARK  207  A    between atoms: _518  and  _520
REMARK  208  A    between atoms: _520  and  _521
REMARK  209  A    between atoms: _520  and  _523
REMARK  210  A    between atoms: _523  and  _524
REMARK  211  A    between atoms: _527  and  _529
REMARK  212  A    between atoms: _529  and  _530
REMARK  213  A    between atoms: _529  and  _532
REMARK  214  A    between atoms: _532  and  _533
REMARK  215  A    between atoms: _538  and  _539
REMARK  216  A    between atoms: _541  and  _543
REMARK  217  A    between atoms: _543  and  _544
REMARK  218  A    between atoms: _546  and  _548
REMARK  219  A    between atoms: _548  and  _549
REMARK  220  A    between atoms: _552  and  _554
REMARK  221  A    between atoms: _554  and  _555
REMARK  222  A    between atoms: _554  and  _557
REMARK  223  A    between atoms: _559  and  _561
REMARK  224  A    between atoms: _561  and  _562
REMARK  225  A    between atoms: _561  and  _564
REMARK  226  A    between atoms: _564  and  _565
REMARK  227  A    between atoms: _570  and  _571
REMARK  228  A    between atoms: _573  and  _575
REMARK  229  A    between atoms: _575  and  _576
REMARK  230  A    between atoms: _575  and  _578
REMARK  231  A    between atoms: _578  and  _579
REMARK  232  A    between atoms: _584  and  _586
REMARK  233  A    between atoms: _586  and  _587
REMARK  234  A    between atoms: _586  and  _589
REMARK  235  A    between atoms: _589  and  _590
REMARK  236  A    between atoms: _596  and  _598
REMARK  237  A    between atoms: _598  and  _599
REMARK  238  A    between atoms: _602  and  _604
REMARK  239  A    between atoms: _604  and  _605
REMARK  240  A    between atoms: _607  and  _609
REMARK  241  A    between atoms: _609  and  _610
REMARK  242  A    between atoms: _609  and  _612
REMARK  243  A    between atoms: _612  and  _613
REMARK  244  A    between atoms: _618  and  _619
REMARK  245  A    between atoms: _621  and  _623
REMARK  246  A    between atoms: _623  and  _624
REMARK  247  A    between atoms: _623  and  _626
REMARK  248  A    between atoms: _626  and  _627
REMARK  249  A    between atoms: _629  and  _631
REMARK  250  A    between atoms: _631  and  _632
REMARK  251  A    between atoms: _634  and  _636
REMARK  252  A    between atoms: _636  and  _637
REMARK                            x       y       z     vdW  Elec       q    Type
REMARK                         _______ _______ _______ _____ _____    ______ ____
ROOT
ATOM      1  O   HOH     1      41.957   1.606 -23.233  0.00  0.00    +0.000 OA
ENDROOT
TORSDOF 0
REMARK  Name = ../refined-set-2016/3hkw/3hkw_pocket.pdb
REMARK  252 active torsions:
REMARK  status: ('A' for Active; 'I' for Inactive)
REMARK    1  A    between atoms: _1  and  _3
REMARK    2  A    between atoms: _3  and  _4
REMARK    3  A    between atoms: _3  and  _6
REMARK    4  A    between atoms: _6  and  _7
REMARK    5  A    between atoms: _7  and  _8
REMARK    6  A    between atoms: _8  and  _9
REMARK    7  A    between atoms: _9  and  _10
REMARK    8  A    between atoms: _14  and  _16
REMARK    9  A    between atoms: _16  and  _17
REMARK   10  A    between atoms: _16  and  _19
REMARK   11  A    between atoms: _19  and  _20
REMARK   12  A    between atoms: _20  and  _21
REMARK   13  A    between atoms: _24  and  _26
REMARK   14  A    between atoms: _26  and  _27
REMARK   15  A    between atoms: _26  and  _29
REMARK   16  A    between atoms: _29  and  _30
REMARK   17  A    between atoms: _30  and  _31
REMARK   18  A    between atoms: _31  and  _32
REMARK   19  A    between atoms: _41  and  _43
REMARK   20  A    between atoms: _43  and  _44
REMARK   21  A    between atoms: _46  and  _48
REMARK   22  A    between atoms: _48  and  _49
REMARK   23  A    between atoms: _48  and  _51
REMARK   24  A    between atoms: _51  and  _52
REMARK   25  A    between atoms: _58  and  _60
REMARK   26  A    between atoms: _60  and  _61
REMARK   27  A    between atoms: _60  and  _63
REMARK   28  A    between atoms: _63  and  _64
REMARK   29  A    between atoms: _69  and  _70
REMARK   30  A    between atoms: _72  and  _74
REMARK   31  A    between atoms: _74  and  _75
REMARK   32  A    between atoms: _74  and  _77
REMARK   33  A    between atoms: _77  and  _78
REMARK   34  A    between atoms: _81  and  _82
REMARK   35  A    between atoms: _87  and  _89
REMARK   36  A    between atoms: _89  and  _90
REMARK   37  A    between atoms: _92  and  _94
REMARK   38  A    between atoms: _94  and  _95
REMARK   39  A    between atoms: _94  and  _97
REMARK   40  A    between atoms: _97  and  _98
REMARK   41  A    between atoms: _98  and  _99
REMARK   42  A    between atoms: _104  and  _106
REMARK   43  A    between atoms: _106  and  _107
REMARK   44  A    between atoms: _106  and  _109
REMARK   45  A    between atoms: _109  and  _110
REMARK   46  A    between atoms: _110  and  _111
REMARK   47  A    between atoms: _111  and  _112
REMARK   48  A    between atoms: _121  and  _123
REMARK   49  A    between atoms: _123  and  _124
REMARK   50  A    between atoms: _123  and  _126
REMARK   51  A    between atoms: _129  and  _131
REMARK   52  A    between atoms: _131  and  _132
REMARK   53  A    between atoms: _131  and  _134
REMARK   54  A    between atoms: _134  and  _135
REMARK   55  A    between atoms: _138  and  _140
REMARK   56  A    between atoms: _140  and  _141
REMARK   57  A    between atoms: _140  and  _143
REMARK   58  A    between atoms: _143  and  _144
REMARK   59  A    between atoms: _147  and  _149
REMARK   60  A    between atoms: _149  and  _150
REMARK   61  A    between atoms: _149  and  _152
REMARK   62  A    between atoms: _152  and  _153
REMARK   63  A    between atoms: _155  and  _157
REMARK   64  A    between atoms: _157  and  _158
REMARK   65  A    between atoms: _157  and  _160
REMARK   66  A    between atoms: _160  and  _161
REMARK   67  A    between atoms: _164  and  _166
REMARK   68  A    between atoms: _166  and  _167
REMARK   69  A    between atoms: _166  and  _169
REMARK   70  A    between atoms: _169  and  _170
REMARK   71  A    between atoms: _172  and  _174
REMARK   72  A    between atoms: _174  and  _175
REMARK   73  A    between atoms: _174  and  _177
REMARK   74  A    between atoms: _177  and  _178
REMARK   75  A    between atoms: _183  and  _185
REMARK   76  A    between atoms: _185  and  _186
REMARK   77  A    between atoms: _185  and  _188
REMARK   78  A    between atoms: _188  and  _189
REMARK   79  A    between atoms: _192  and  _194
REMARK   80  A    between atoms: _194  and  _195
REMARK   81  A    between atoms: _194  and  _197
REMARK   82  A    between atoms: _199  and  _201
REMARK   83  A    between atoms: _201  and  _202
REMARK   84  A    between atoms: _204  and  _206
REMARK   85  A    between atoms: _206  and  _207
REMARK   86  A    between atoms: _206  and  _209
REMARK   87  A    between atoms: _209  and  _210
REMARK   88  A    between atoms: _213  and  _215
REMARK   89  A    between atoms: _215  and  _216
REMARK   90  A    between atoms: _215  and  _218
REMARK   91  A    between atoms: _218  and  _219
REMARK   92  A    between atoms: _222  and  _224
REMARK   93  A    between atoms: _224  and  _225
REMARK   94  A    between atoms: _224  and  _227
REMARK   95  A    between atoms: _227  and  _228
REMARK   96  A    between atoms: _230  and  _232
REMARK   97  A    between atoms: _232  and  _233
REMARK   98  A    between atoms: _232  and  _235
REMARK   99  A    between atoms: _237  and  _239
REMARK  100  A    between atoms: _239  and  _240
REMARK  101  A    between atoms: _239  and  _242
REMARK  102  A    between atoms: _242  and  _243
REMARK  103  A    between atoms: _245  and  _247
REMARK  104  A    between atoms: _247  and  _248
REMARK  105  A    between atoms: _247  and  _250
REMARK  106  A    between atoms: _250  and  _251
REMARK  107  A    between atoms: _253  and  _255
REMARK  108  A    between atoms: _255  and  _256
REMARK  109  A    between atoms: _255  and  _258
REMARK  110  A    between atoms: _258  and  _259
REMARK  111  A    between atoms: _264  and  _266
REMARK  112  A    between atoms: _266  and  _267
REMARK  113  A    between atoms: _266  and  _269
REMARK  114  A    between atoms: _269  and  _270
REMARK  115  A    between atoms: _275  and  _276
REMARK  116  A    between atoms: _278  and  _280
REMARK  117  A    between atoms: _280  and  _281
REMARK  118  A    between atoms: _280  and  _283
REMARK  119  A    between atoms: _283  and  _284
REMARK  120  A    between atoms: _287  and  _289
REMARK  121  A    between atoms: _289  and  _290
REMARK  122  A    between atoms: _289  and  _292
REMARK  123  A    between atoms: _292  and  _293
REMARK  124  A    between atoms: _296  and  _298
REMARK  125  A    between atoms: _298  and  _299
REMARK  126  A    between atoms: _298  and  _301
REMARK  127  A    between atoms: _301  and  _302
REMARK  128  A    between atoms: _302  and  _303
REMARK  129  A    between atoms: _303  and  _304
REMARK  130  A    between atoms: _313  and  _315
REMARK  131  A    between atoms: _315  and  _316
REMARK  132  A    between atoms: _315  and  _318
REMARK  133  A    between atoms: _318  and  _319
REMARK  134  A    between atoms: _323  and  _324
REMARK  135  A    between atoms: _329  and  _331
REMARK  136  A    between atoms: _331  and  _332
REMARK  137  A    between atoms: _331  and  _334
REMARK  138  A    between atoms: _334  and  _335
REMARK  139  A    between atoms: _335  and  _336
REMARK  140  A    between atoms: _336  and  _337
REMARK  141  A    between atoms: _346  and  _348
REMARK  142  A    between atoms: _348  and  _349
REMARK  143  A    between atoms: _348  and  _351
REMARK  144  A    between atoms: _351  and  _352
REMARK  145  A    between atoms: _352  and  _353
REMARK  146  A    between atoms: _356  and  _358
REMARK  147  A    between atoms: _358  and  _359
REMARK  148  A    between atoms: _358  and  _361
REMARK  149  A    between atoms: _364  and  _366
REMARK  150  A    between atoms: _366  and  _367
REMARK  151  A    between atoms: _366  and  _369
REMARK  152  A    between atoms: _369  and  _370
REMARK  153  A    between atoms: _375  and  _377
REMARK  154  A    between atoms: _377  and  _378
REMARK  155  A    between atoms: _377  and  _380
REMARK  156  A    between atoms: _380  and  _381
REMARK  157  A    between atoms: _383  and  _385
REMARK  158  A    between atoms: _385  and  _386
REMARK  159  A    between atoms: _385  and  _388
REMARK  160  A    between atoms: _388  and  _389
REMARK  161  A    between atoms: _399  and  _401
REMARK  162  A    between atoms: _401  and  _402
REMARK  163  A    between atoms: _401  and  _404
REMARK  164  A    between atoms: _404  and  _405
REMARK  165  A    between atoms: _408  and  _410
REMARK  166  A    between atoms: _410  and  _411
REMARK  167  A    between atoms: _413  and  _415
REMARK  168  A    between atoms: _415  and  _416
REMARK  169  A    between atoms: _415  and  _418
REMARK  170  A    between atoms: _418  and  _419
REMARK  171  A    between atoms: _424  and  _426
REMARK  172  A    between atoms: _426  and  _427
REMARK  173  A    between atoms: _426  and  _429
REMARK  174  A    between atoms: _429  and  _430
REMARK  175  A    between atoms: _433  and  _435
REMARK  176  A    between atoms: _435  and  _436
REMARK  177  A    between atoms: _435  and  _438
REMARK  178  A    between atoms: _438  and  _439
REMARK  179  A    between atoms: _442  and  _444
REMARK  180  A    between atoms: _444  and  _445
REMARK  181  A    between atoms: _444  and  _447
REMARK  182  A    between atoms: _447  and  _448
REMARK  183  A    between atoms: _448  and  _449
REMARK  184  A    between atoms: _451  and  _453
REMARK  185  A    between atoms: _453  and  _454
REMARK  186  A    between atoms: _453  and  _456
REMARK  187  A    between atoms: _456  and  _457
REMARK  188  A    between atoms: _463  and  _465
REMARK  189  A    between atoms: _465  and  _466
REMARK  190  A    between atoms: _470  and  _471
REMARK  191  A    between atoms: _476  and  _478
REMARK  192  A    between atoms: _478  and  _479
REMARK  193  A    between atoms: _478  and  _481
REMARK  194  A    between atoms: _481  and  _482
REMARK  195  A    between atoms: _485  and  _487
REMARK  196  A    between atoms: _487  and  _488
REMARK  197  A    between atoms: _487  and  _490
REMARK  198  A    between atoms: _490  and  _491
REMARK  199  A    between atoms: _501  and  _503
REMARK  200  A    between atoms: _503  and  _504
REMARK  201  A    between atoms: _503  and  _506
REMARK  202  A    between atoms: _508  and  _510
REMARK  203  A    between atoms: _510  and  _511
REMARK  204  A    between atoms: _510  and  _513
REMARK  205  A    between atoms: _513  and  _514
REMARK  206  A    between atoms: _514  and  _515
REMARK  207  A    between atoms: _518  and  _520
REMARK  208  A    between atoms: _520  and  _521
REMARK  209  A    between atoms: _520  and  _523
REMARK  210  A    between atoms: _523  and  _524
REMARK  211  A    between atoms: _527  and  _529
REMARK  212  A    between atoms: _529  and  _530
REMARK  213  A    between atoms: _529  and  _532
REMARK  214  A    between atoms: _532  and  _533
REMARK  215  A    between atoms: _538  and  _539
REMARK  216  A    between atoms: _541  and  _543
REMARK  217  A    between atoms: _543  and  _544
REMARK  218  A    between atoms: _546  and  _548
REMARK  219  A    between atoms: _548  and  _549
REMARK  220  A    between atoms: _552  and  _554
REMARK  221  A    between atoms: _554  and  _555
REMARK  222  A    between atoms: _554  and  _557
REMARK  223  A    between atoms: _559  and  _561
REMARK  224  A    between atoms: _561  and  _562
REMARK  225  A    between atoms: _561  and  _564
REMARK  226  A    between atoms: _564  and  _565
REMARK  227  A    between atoms: _570  and  _571
REMARK  228  A    between atoms: _573  and  _575
REMARK  229  A    between atoms: _575  and  _576
REMARK  230  A    between atoms: _575  and  _578
REMARK  231  A    between atoms: _578  and  _579
REMARK  232  A    between atoms: _584  and  _586
REMARK  233  A    between atoms: _586  and  _587
REMARK  234  A    between atoms: _586  and  _589
REMARK  235  A    between atoms: _589  and  _590
REMARK  236  A    between atoms: _596  and  _598
REMARK  237  A    between atoms: _598  and  _599
REMARK  238  A    between atoms: _602  and  _604
REMARK  239  A    between atoms: _604  and  _605
REMARK  240  A    between atoms: _607  and  _609
REMARK  241  A    between atoms: _609  and  _610
REMARK  242  A    between atoms: _609  and  _612
REMARK  243  A    between atoms: _612  and  _613
REMARK  244  A    between atoms: _618  and  _619
REMARK  245  A    between atoms: _621  and  _623
REMARK  246  A    between atoms: _623  and  _624
REMARK  247  A    between atoms: _623  and  _626
REMARK  248  A    between atoms: _626  and  _627
REMARK  249  A    between atoms: _629  and  _631
REMARK  250  A    between atoms: _631  and  _632
REMARK  251  A    between atoms: _634  and  _636
REMARK  252  A    between atoms: _636  and  _637
REMARK                            x       y       z     vdW  Elec       q    Type
REMARK                         _______ _______ _______ _____ _____    ______ ____
ROOT
ATOM      1  O   HOH     1      26.356  11.451 -24.734  0.00  0.00    +0.000 OA
ENDROOT
TORSDOF 0
REMARK  Name = ../refined-set-2016/3hkw/3hkw_pocket.pdb
REMARK  252 active torsions:
REMARK  status: ('A' for Active; 'I' for Inactive)
REMARK    1  A    between atoms: _1  and  _3
REMARK    2  A    between atoms: _3  and  _4
REMARK    3  A    between atoms: _3  and  _6
REMARK    4  A    between atoms: _6  and  _7
REMARK    5  A    between atoms: _7  and  _8
REMARK    6  A    between atoms: _8  and  _9
REMARK    7  A    between atoms: _9  and  _10
REMARK    8  A    between atoms: _14  and  _16
REMARK    9  A    between atoms: _16  and  _17
REMARK   10  A    between atoms: _16  and  _19
REMARK   11  A    between atoms: _19  and  _20
REMARK   12  A    between atoms: _20  and  _21
REMARK   13  A    between atoms: _24  and  _26
REMARK   14  A    between atoms: _26  and  _27
REMARK   15  A    between atoms: _26  and  _29
REMARK   16  A    between atoms: _29  and  _30
REMARK   17  A    between atoms: _30  and  _31
REMARK   18  A    between atoms: _31  and  _32
REMARK   19  A    between atoms: _41  and  _43
REMARK   20  A    between atoms: _43  and  _44
REMARK   21  A    between atoms: _46  and  _48
REMARK   22  A    between atoms: _48  and  _49
REMARK   23  A    between atoms: _48  and  _51
REMARK   24  A    between atoms: _51  and  _52
REMARK   25  A    between atoms: _58  and  _60
REMARK   26  A    between atoms: _60  and  _61
REMARK   27  A    between atoms: _60  and  _63
REMARK   28  A    between atoms: _63  and  _64
REMARK   29  A    between atoms: _69  and  _70
REMARK   30  A    between atoms: _72  and  _74
REMARK   31  A    between atoms: _74  and  _75
REMARK   32  A    between atoms: _74  and  _77
REMARK   33  A    between atoms: _77  and  _78
REMARK   34  A    between atoms: _81  and  _82
REMARK   35  A    between atoms: _87  and  _89
REMARK   36  A    between atoms: _89  and  _90
REMARK   37  A    between atoms: _92  and  _94
REMARK   38  A    between atoms: _94  and  _95
REMARK   39  A    between atoms: _94  and  _97
REMARK   40  A    between atoms: _97  and  _98
REMARK   41  A    between atoms: _98  and  _99
REMARK   42  A    between atoms: _104  and  _106
REMARK   43  A    between atoms: _106  and  _107
REMARK   44  A    between atoms: _106  and  _109
REMARK   45  A    between atoms: _109  and  _110
REMARK   46  A    between atoms: _110  and  _111
REMARK   47  A    between atoms: _111  and  _112
REMARK   48  A    between atoms: _121  and  _123
REMARK   49  A    between atoms: _123  and  _124
REMARK   50  A    between atoms: _123  and  _126
REMARK   51  A    between atoms: _129  and  _131
REMARK   52  A    between atoms: _131  and  _132
REMARK   53  A    between atoms: _131  and  _134
REMARK   54  A    between atoms: _134  and  _135
REMARK   55  A    between atoms: _138  and  _140
REMARK   56  A    between atoms: _140  and  _141
REMARK   57  A    between atoms: _140  and  _143
REMARK   58  A    between atoms: _143  and  _144
REMARK   59  A    between atoms: _147  and  _149
REMARK   60  A    between atoms: _149  and  _150
REMARK   61  A    between atoms: _149  and  _152
REMARK   62  A    between atoms: _152  and  _153
REMARK   63  A    between atoms: _155  and  _157
REMARK   64  A    between atoms: _157  and  _158
REMARK   65  A    between atoms: _157  and  _160
REMARK   66  A    between atoms: _160  and  _161
REMARK   67  A    between atoms: _164  and  _166
REMARK   68  A    between atoms: _166  and  _167
REMARK   69  A    between atoms: _166  and  _169
REMARK   70  A    between atoms: _169  and  _170
REMARK   71  A    between atoms: _172  and  _174
REMARK   72  A    between atoms: _174  and  _175
REMARK   73  A    between atoms: _174  and  _177
REMARK   74  A    between atoms: _177  and  _178
REMARK   75  A    between atoms: _183  and  _185
REMARK   76  A    between atoms: _185  and  _186
REMARK   77  A    between atoms: _185  and  _188
REMARK   78  A    between atoms: _188  and  _189
REMARK   79  A    between atoms: _192  and  _194
REMARK   80  A    between atoms: _194  and  _195
REMARK   81  A    between atoms: _194  and  _197
REMARK   82  A    between atoms: _199  and  _201
REMARK   83  A    between atoms: _201  and  _202
REMARK   84  A    between atoms: _204  and  _206
REMARK   85  A    between atoms: _206  and  _207
REMARK   86  A    between atoms: _206  and  _209
REMARK   87  A    between atoms: _209  and  _210
REMARK   88  A    between atoms: _213  and  _215
REMARK   89  A    between atoms: _215  and  _216
REMARK   90  A    between atoms: _215  and  _218
REMARK   91  A    between atoms: _218  and  _219
REMARK   92  A    between atoms: _222  and  _224
REMARK   93  A    between atoms: _224  and  _225
REMARK   94  A    between atoms: _224  and  _227
REMARK   95  A    between atoms: _227  and  _228
REMARK   96  A    between atoms: _230  and  _232
REMARK   97  A    between atoms: _232  and  _233
REMARK   98  A    between atoms: _232  and  _235
REMARK   99  A    between atoms: _237  and  _239
REMARK  100  A    between atoms: _239  and  _240
REMARK  101  A    between atoms: _239  and  _242
REMARK  102  A    between atoms: _242  and  _243
REMARK  103  A    between atoms: _245  and  _247
REMARK  104  A    between atoms: _247  and  _248
REMARK  105  A    between atoms: _247  and  _250
REMARK  106  A    between atoms: _250  and  _251
REMARK  107  A    between atoms: _253  and  _255
REMARK  108  A    between atoms: _255  and  _256
REMARK  109  A    between atoms: _255  and  _258
REMARK  110  A    between atoms: _258  and  _259
REMARK  111  A    between atoms: _264  and  _266
REMARK  112  A    between atoms: _266  and  _267
REMARK  113  A    between atoms: _266  and  _269
REMARK  114  A    between atoms: _269  and  _270
REMARK  115  A    between atoms: _275  and  _276
REMARK  116  A    between atoms: _278  and  _280
REMARK  117  A    between atoms: _280  and  _281
REMARK  118  A    between atoms: _280  and  _283
REMARK  119  A    between atoms: _283  and  _284
REMARK  120  A    between atoms: _287  and  _289
REMARK  121  A    between atoms: _289  and  _290
REMARK  122  A    between atoms: _289  and  _292
REMARK  123  A    between atoms: _292  and  _293
REMARK  124  A    between atoms: _296  and  _298
REMARK  125  A    between atoms: _298  and  _299
REMARK  126  A    between atoms: _298  and  _301
REMARK  127  A    between atoms: _301  and  _302
REMARK  128  A    between atoms: _302  and  _303
REMARK  129  A    between atoms: _303  and  _304
REMARK  130  A    between atoms: _313  and  _315
REMARK  131  A    between atoms: _315  and  _316
REMARK  132  A    between atoms: _315  and  _318
REMARK  133  A    between atoms: _318  and  _319
REMARK  134  A    between atoms: _323  and  _324
REMARK  135  A    between atoms: _329  and  _331
REMARK  136  A    between atoms: _331  and  _332
REMARK  137  A    between atoms: _331  and  _334
REMARK  138  A    between atoms: _334  and  _335
REMARK  139  A    between atoms: _335  and  _336
REMARK  140  A    between atoms: _336  and  _337
REMARK  141  A    between atoms: _346  and  _348
REMARK  142  A    between atoms: _348  and  _349
REMARK  143  A    between atoms: _348  and  _351
REMARK  144  A    between atoms: _351  and  _352
REMARK  145  A    between atoms: _352  and  _353
REMARK  146  A    between atoms: _356  and  _358
REMARK  147  A    between atoms: _358  and  _359
REMARK  148  A    between atoms: _358  and  _361
REMARK  149  A    between atoms: _364  and  _366
REMARK  150  A    between atoms: _366  and  _367
REMARK  151  A    between atoms: _366  and  _369
REMARK  152  A    between atoms: _369  and  _370
REMARK  153  A    between atoms: _375  and  _377
REMARK  154  A    between atoms: _377  and  _378
REMARK  155  A    between atoms: _377  and  _380
REMARK  156  A    between atoms: _380  and  _381
REMARK  157  A    between atoms: _383  and  _385
REMARK  158  A    between atoms: _385  and  _386
REMARK  159  A    between atoms: _385  and  _388
REMARK  160  A    between atoms: _388  and  _389
REMARK  161  A    between atoms: _399  and  _401
REMARK  162  A    between atoms: _401  and  _402
REMARK  163  A    between atoms: _401  and  _404
REMARK  164  A    between atoms: _404  and  _405
REMARK  165  A    between atoms: _408  and  _410
REMARK  166  A    between atoms: _410  and  _411
REMARK  167  A    between atoms: _413  and  _415
REMARK  168  A    between atoms: _415  and  _416
REMARK  169  A    between atoms: _415  and  _418
REMARK  170  A    between atoms: _418  and  _419
REMARK  171  A    between atoms: _424  and  _426
REMARK  172  A    between atoms: _426  and  _427
REMARK  173  A    between atoms: _426  and  _429
REMARK  174  A    between atoms: _429  and  _430
REMARK  175  A    between atoms: _433  and  _435
REMARK  176  A    between atoms: _435  and  _436
REMARK  177  A    between atoms: _435  and  _438
REMARK  178  A    between atoms: _438  and  _439
REMARK  179  A    between atoms: _442  and  _444
REMARK  180  A    between atoms: _444  and  _445
REMARK  181  A    between atoms: _444  and  _447
REMARK  182  A    between atoms: _447  and  _448
REMARK  183  A    between atoms: _448  and  _449
REMARK  184  A    between atoms: _451  and  _453
REMARK  185  A    between atoms: _453  and  _454
REMARK  186  A    between atoms: _453  and  _456
REMARK  187  A    between atoms: _456  and  _457
REMARK  188  A    between atoms: _463  and  _465
REMARK  189  A    between atoms: _465  and  _466
REMARK  190  A    between atoms: _470  and  _471
REMARK  191  A    between atoms: _476  and  _478
REMARK  192  A    between atoms: _478  and  _479
REMARK  193  A    between atoms: _478  and  _481
REMARK  194  A    between atoms: _481  and  _482
REMARK  195  A    between atoms: _485  and  _487
REMARK  196  A    between atoms: _487  and  _488
REMARK  197  A    between atoms: _487  and  _490
REMARK  198  A    between atoms: _490  and  _491
REMARK  199  A    between atoms: _501  and  _503
REMARK  200  A    between atoms: _503  and  _504
REMARK  201  A    between atoms: _503  and  _506
REMARK  202  A    between atoms: _508  and  _510
REMARK  203  A    between atoms: _510  and  _511
REMARK  204  A    between atoms: _510  and  _513
REMARK  205  A    between atoms: _513  and  _514
REMARK  206  A    between atoms: _514  and  _515
REMARK  207  A    between atoms: _518  and  _520
REMARK  208  A    between atoms: _520  and  _521
REMARK  209  A    between atoms: _520  and  _523
REMARK  210  A    between atoms: _523  and  _524
REMARK  211  A    between atoms: _527  and  _529
REMARK  212  A    between atoms: _529  and  _530
REMARK  213  A    between atoms: _529  and  _532
REMARK  214  A    between atoms: _532  and  _533
REMARK  215  A    between atoms: _538  and  _539
REMARK  216  A    between atoms: _541  and  _543
REMARK  217  A    between atoms: _543  and  _544
REMARK  218  A    between atoms: _546  and  _548
REMARK  219  A    between atoms: _548  and  _549
REMARK  220  A    between atoms: _552  and  _554
REMARK  221  A    between atoms: _554  and  _555
REMARK  222  A    between atoms: _554  and  _557
REMARK  223  A    between atoms: _559  and  _561
REMARK  224  A    between atoms: _561  and  _562
REMARK  225  A    between atoms: _561  and  _564
REMARK  226  A    between atoms: _564  and  _565
REMARK  227  A    between atoms: _570  and  _571
REMARK  228  A    between atoms: _573  and  _575
REMARK  229  A    between atoms: _575  and  _576
REMARK  230  A    between atoms: _575  and  _578
REMARK  231  A    between atoms: _578  and  _579
REMARK  232  A    between atoms: _584  and  _586
REMARK  233  A    between atoms: _586  and  _587
REMARK  234  A    between atoms: _586  and  _589
REMARK  235  A    between atoms: _589  and  _590
REMARK  236  A    between atoms: _596  and  _598
REMARK  237  A    between atoms: _598  and  _599
REMARK  238  A    between atoms: _602  and  _604
REMARK  239  A    between atoms: _604  and  _605
REMARK  240  A    between atoms: _607  and  _609
REMARK  241  A    between atoms: _609  and  _610
REMARK  242  A    between atoms: _609  and  _612
REMARK  243  A    between atoms: _612  and  _613
REMARK  244  A    between atoms: _618  and  _619
REMARK  245  A    between atoms: _621  and  _623
REMARK  246  A    between atoms: _623  and  _624
REMARK  247  A    between atoms: _623  and  _626
REMARK  248  A    between atoms: _626  and  _627
REMARK  249  A    between atoms: _629  and  _631
REMARK  250  A    between atoms: _631  and  _632
REMARK  251  A    between atoms: _634  and  _636
REMARK  252  A    between atoms: _636  and  _637
REMARK                            x       y       z     vdW  Elec       q    Type
REMARK                         _______ _______ _______ _____ _____    ______ ____
ROOT
ATOM      1  O   HOH     1      29.048  11.113 -24.350  0.00  0.00    +0.000 OA
ENDROOT
TORSDOF 0
REMARK  Name = ../refined-set-2016/3hkw/3hkw_pocket.pdb
REMARK  252 active torsions:
REMARK  status: ('A' for Active; 'I' for Inactive)
REMARK    1  A    between atoms: _1  and  _3
REMARK    2  A    between atoms: _3  and  _4
REMARK    3  A    between atoms: _3  and  _6
REMARK    4  A    between atoms: _6  and  _7
REMARK    5  A    between atoms: _7  and  _8
REMARK    6  A    between atoms: _8  and  _9
REMARK    7  A    between atoms: _9  and  _10
REMARK    8  A    between atoms: _14  and  _16
REMARK    9  A    between atoms: _16  and  _17
REMARK   10  A    between atoms: _16  and  _19
REMARK   11  A    between atoms: _19  and  _20
REMARK   12  A    between atoms: _20  and  _21
REMARK   13  A    between atoms: _24  and  _26
REMARK   14  A    between atoms: _26  and  _27
REMARK   15  A    between atoms: _26  and  _29
REMARK   16  A    between atoms: _29  and  _30
REMARK   17  A    between atoms: _30  and  _31
REMARK   18  A    between atoms: _31  and  _32
REMARK   19  A    between atoms: _41  and  _43
REMARK   20  A    between atoms: _43  and  _44
REMARK   21  A    between atoms: _46  and  _48
REMARK   22  A    between atoms: _48  and  _49
REMARK   23  A    between atoms: _48  and  _51
REMARK   24  A    between atoms: _51  and  _52
REMARK   25  A    between atoms: _58  and  _60
REMARK   26  A    between atoms: _60  and  _61
REMARK   27  A    between atoms: _60  and  _63
REMARK   28  A    between atoms: _63  and  _64
REMARK   29  A    between atoms: _69  and  _70
REMARK   30  A    between atoms: _72  and  _74
REMARK   31  A    between atoms: _74  and  _75
REMARK   32  A    between atoms: _74  and  _77
REMARK   33  A    between atoms: _77  and  _78
REMARK   34  A    between atoms: _81  and  _82
REMARK   35  A    between atoms: _87  and  _89
REMARK   36  A    between atoms: _89  and  _90
REMARK   37  A    between atoms: _92  and  _94
REMARK   38  A    between atoms: _94  and  _95
REMARK   39  A    between atoms: _94  and  _97
REMARK   40  A    between atoms: _97  and  _98
REMARK   41  A    between atoms: _98  and  _99
REMARK   42  A    between atoms: _104  and  _106
REMARK   43  A    between atoms: _106  and  _107
REMARK   44  A    between atoms: _106  and  _109
REMARK   45  A    between atoms: _109  and  _110
REMARK   46  A    between atoms: _110  and  _111
REMARK   47  A    between atoms: _111  and  _112
REMARK   48  A    between atoms: _121  and  _123
REMARK   49  A    between atoms: _123  and  _124
REMARK   50  A    between atoms: _123  and  _126
REMARK   51  A    between atoms: _129  and  _131
REMARK   52  A    between atoms: _131  and  _132
REMARK   53  A    between atoms: _131  and  _134
REMARK   54  A    between atoms: _134  and  _135
REMARK   55  A    between atoms: _138  and  _140
REMARK   56  A    between atoms: _140  and  _141
REMARK   57  A    between atoms: _140  and  _143
REMARK   58  A    between atoms: _143  and  _144
REMARK   59  A    between atoms: _147  and  _149
REMARK   60  A    between atoms: _149  and  _150
REMARK   61  A    between atoms: _149  and  _152
REMARK   62  A    between atoms: _152  and  _153
REMARK   63  A    between atoms: _155  and  _157
REMARK   64  A    between atoms: _157  and  _158
REMARK   65  A    between atoms: _157  and  _160
REMARK   66  A    between atoms: _160  and  _161
REMARK   67  A    between atoms: _164  and  _166
REMARK   68  A    between atoms: _166  and  _167
REMARK   69  A    between atoms: _166  and  _169
REMARK   70  A    between atoms: _169  and  _170
REMARK   71  A    between atoms: _172  and  _174
REMARK   72  A    between atoms: _174  and  _175
REMARK   73  A    between atoms: _174  and  _177
REMARK   74  A    between atoms: _177  and  _178
REMARK   75  A    between atoms: _183  and  _185
REMARK   76  A    between atoms: _185  and  _186
REMARK   77  A    between atoms: _185  and  _188
REMARK   78  A    between atoms: _188  and  _189
REMARK   79  A    between atoms: _192  and  _194
REMARK   80  A    between atoms: _194  and  _195
REMARK   81  A    between atoms: _194  and  _197
REMARK   82  A    between atoms: _199  and  _201
REMARK   83  A    between atoms: _201  and  _202
REMARK   84  A    between atoms: _204  and  _206
REMARK   85  A    between atoms: _206  and  _207
REMARK   86  A    between atoms: _206  and  _209
REMARK   87  A    between atoms: _209  and  _210
REMARK   88  A    between atoms: _213  and  _215
REMARK   89  A    between atoms: _215  and  _216
REMARK   90  A    between atoms: _215  and  _218
REMARK   91  A    between atoms: _218  and  _219
REMARK   92  A    between atoms: _222  and  _224
REMARK   93  A    between atoms: _224  and  _225
REMARK   94  A    between atoms: _224  and  _227
REMARK   95  A    between atoms: _227  and  _228
REMARK   96  A    between atoms: _230  and  _232
REMARK   97  A    between atoms: _232  and  _233
REMARK   98  A    between atoms: _232  and  _235
REMARK   99  A    between atoms: _237  and  _239
REMARK  100  A    between atoms: _239  and  _240
REMARK  101  A    between atoms: _239  and  _242
REMARK  102  A    between atoms: _242  and  _243
REMARK  103  A    between atoms: _245  and  _247
REMARK  104  A    between atoms: _247  and  _248
REMARK  105  A    between atoms: _247  and  _250
REMARK  106  A    between atoms: _250  and  _251
REMARK  107  A    between atoms: _253  and  _255
REMARK  108  A    between atoms: _255  and  _256
REMARK  109  A    between atoms: _255  and  _258
REMARK  110  A    between atoms: _258  and  _259
REMARK  111  A    between atoms: _264  and  _266
REMARK  112  A    between atoms: _266  and  _267
REMARK  113  A    between atoms: _266  and  _269
REMARK  114  A    between atoms: _269  and  _270
REMARK  115  A    between atoms: _275  and  _276
REMARK  116  A    between atoms: _278  and  _280
REMARK  117  A    between atoms: _280  and  _281
REMARK  118  A    between atoms: _280  and  _283
REMARK  119  A    between atoms: _283  and  _284
REMARK  120  A    between atoms: _287  and  _289
REMARK  121  A    between atoms: _289  and  _290
REMARK  122  A    between atoms: _289  and  _292
REMARK  123  A    between atoms: _292  and  _293
REMARK  124  A    between atoms: _296  and  _298
REMARK  125  A    between atoms: _298  and  _299
REMARK  126  A    between atoms: _298  and  _301
REMARK  127  A    between atoms: _301  and  _302
REMARK  128  A    between atoms: _302  and  _303
REMARK  129  A    between atoms: _303  and  _304
REMARK  130  A    between atoms: _313  and  _315
REMARK  131  A    between atoms: _315  and  _316
REMARK  132  A    between atoms: _315  and  _318
REMARK  133  A    between atoms: _318  and  _319
REMARK  134  A    between atoms: _323  and  _324
REMARK  135  A    between atoms: _329  and  _331
REMARK  136  A    between atoms: _331  and  _332
REMARK  137  A    between atoms: _331  and  _334
REMARK  138  A    between atoms: _334  and  _335
REMARK  139  A    between atoms: _335  and  _336
REMARK  140  A    between atoms: _336  and  _337
REMARK  141  A    between atoms: _346  and  _348
REMARK  142  A    between atoms: _348  and  _349
REMARK  143  A    between atoms: _348  and  _351
REMARK  144  A    between atoms: _351  and  _352
REMARK  145  A    between atoms: _352  and  _353
REMARK  146  A    between atoms: _356  and  _358
REMARK  147  A    between atoms: _358  and  _359
REMARK  148  A    between atoms: _358  and  _361
REMARK  149  A    between atoms: _364  and  _366
REMARK  150  A    between atoms: _366  and  _367
REMARK  151  A    between atoms: _366  and  _369
REMARK  152  A    between atoms: _369  and  _370
REMARK  153  A    between atoms: _375  and  _377
REMARK  154  A    between atoms: _377  and  _378
REMARK  155  A    between atoms: _377  and  _380
REMARK  156  A    between atoms: _380  and  _381
REMARK  157  A    between atoms: _383  and  _385
REMARK  158  A    between atoms: _385  and  _386
REMARK  159  A    between atoms: _385  and  _388
REMARK  160  A    between atoms: _388  and  _389
REMARK  161  A    between atoms: _399  and  _401
REMARK  162  A    between atoms: _401  and  _402
REMARK  163  A    between atoms: _401  and  _404
REMARK  164  A    between atoms: _404  and  _405
REMARK  165  A    between atoms: _408  and  _410
REMARK  166  A    between atoms: _410  and  _411
REMARK  167  A    between atoms: _413  and  _415
REMARK  168  A    between atoms: _415  and  _416
REMARK  169  A    between atoms: _415  and  _418
REMARK  170  A    between atoms: _418  and  _419
REMARK  171  A    between atoms: _424  and  _426
REMARK  172  A    between atoms: _426  and  _427
REMARK  173  A    between atoms: _426  and  _429
REMARK  174  A    between atoms: _429  and  _430
REMARK  175  A    between atoms: _433  and  _435
REMARK  176  A    between atoms: _435  and  _436
REMARK  177  A    between atoms: _435  and  _438
REMARK  178  A    between atoms: _438  and  _439
REMARK  179  A    between atoms: _442  and  _444
REMARK  180  A    between atoms: _444  and  _445
REMARK  181  A    between atoms: _444  and  _447
REMARK  182  A    between atoms: _447  and  _448
REMARK  183  A    between atoms: _448  and  _449
REMARK  184  A    between atoms: _451  and  _453
REMARK  185  A    between atoms: _453  and  _454
REMARK  186  A    between atoms: _453  and  _456
REMARK  187  A    between atoms: _456  and  _457
REMARK  188  A    between atoms: _463  and  _465
REMARK  189  A    between atoms: _465  and  _466
REMARK  190  A    between atoms: _470  and  _471
REMARK  191  A    between atoms: _476  and  _478
REMARK  192  A    between atoms: _478  and  _479
REMARK  193  A    between atoms: _478  and  _481
REMARK  194  A    between atoms: _481  and  _482
REMARK  195  A    between atoms: _485  and  _487
REMARK  196  A    between atoms: _487  and  _488
REMARK  197  A    between atoms: _487  and  _490
REMARK  198  A    between atoms: _490  and  _491
REMARK  199  A    between atoms: _501  and  _503
REMARK  200  A    between atoms: _503  and  _504
REMARK  201  A    between atoms: _503  and  _506
REMARK  202  A    between atoms: _508  and  _510
REMARK  203  A    between atoms: _510  and  _511
REMARK  204  A    between atoms: _510  and  _513
REMARK  205  A    between atoms: _513  and  _514
REMARK  206  A    between atoms: _514  and  _515
REMARK  207  A    between atoms: _518  and  _520
REMARK  208  A    between atoms: _520  and  _521
REMARK  209  A    between atoms: _520  and  _523
REMARK  210  A    between atoms: _523  and  _524
REMARK  211  A    between atoms: _527  and  _529
REMARK  212  A    between atoms: _529  and  _530
REMARK  213  A    between atoms: _529  and  _532
REMARK  214  A    between atoms: _532  and  _533
REMARK  215  A    between atoms: _538  and  _539
REMARK  216  A    between atoms: _541  and  _543
REMARK  217  A    between atoms: _543  and  _544
REMARK  218  A    between atoms: _546  and  _548
REMARK  219  A    between atoms: _548  and  _549
REMARK  220  A    between atoms: _552  and  _554
REMARK  221  A    between atoms: _554  and  _555
REMARK  222  A    between atoms: _554  and  _557
REMARK  223  A    between atoms: _559  and  _561
REMARK  224  A    between atoms: _561  and  _562
REMARK  225  A    between atoms: _561  and  _564
REMARK  226  A    between atoms: _564  and  _565
REMARK  227  A    between atoms: _570  and  _571
REMARK  228  A    between atoms: _573  and  _575
REMARK  229  A    between atoms: _575  and  _576
REMARK  230  A    between atoms: _575  and  _578
REMARK  231  A    between atoms: _578  and  _579
REMARK  232  A    between atoms: _584  and  _586
REMARK  233  A    between atoms: _586  and  _587
REMARK  234  A    between atoms: _586  and  _589
REMARK  235  A    between atoms: _589  and  _590
REMARK  236  A    between atoms: _596  and  _598
REMARK  237  A    between atoms: _598  and  _599
REMARK  238  A    between atoms: _602  and  _604
REMARK  239  A    between atoms: _604  and  _605
REMARK  240  A    between atoms: _607  and  _609
REMARK  241  A    between atoms: _609  and  _610
REMARK  242  A    between atoms: _609  and  _612
REMARK  243  A    between atoms: _612  and  _613
REMARK  244  A    between atoms: _618  and  _619
REMARK  245  A    between atoms: _621  and  _623
REMARK  246  A    between atoms: _623  and  _624
REMARK  247  A    between atoms: _623  and  _626
REMARK  248  A    between atoms: _626  and  _627
REMARK  249  A    between atoms: _629  and  _631
REMARK  250  A    between atoms: _631  and  _632
REMARK  251  A    between atoms: _634  and  _636
REMARK  252  A    between atoms: _636  and  _637
REMARK                            x       y       z     vdW  Elec       q    Type
REMARK                         _______ _______ _______ _____ _____    ______ ____
ROOT
ATOM      1  O   HOH     1      35.825  -4.051  -8.236  0.00  0.00    +0.000 OA
ENDROOT
TORSDOF 0
REMARK  Name = ../refined-set-2016/3hkw/3hkw_pocket.pdb
REMARK  252 active torsions:
REMARK  status: ('A' for Active; 'I' for Inactive)
REMARK    1  A    between atoms: _1  and  _3
REMARK    2  A    between atoms: _3  and  _4
REMARK    3  A    between atoms: _3  and  _6
REMARK    4  A    between atoms: _6  and  _7
REMARK    5  A    between atoms: _7  and  _8
REMARK    6  A    between atoms: _8  and  _9
REMARK    7  A    between atoms: _9  and  _10
REMARK    8  A    between atoms: _14  and  _16
REMARK    9  A    between atoms: _16  and  _17
REMARK   10  A    between atoms: _16  and  _19
REMARK   11  A    between atoms: _19  and  _20
REMARK   12  A    between atoms: _20  and  _21
REMARK   13  A    between atoms: _24  and  _26
REMARK   14  A    between atoms: _26  and  _27
REMARK   15  A    between atoms: _26  and  _29
REMARK   16  A    between atoms: _29  and  _30
REMARK   17  A    between atoms: _30  and  _31
REMARK   18  A    between atoms: _31  and  _32
REMARK   19  A    between atoms: _41  and  _43
REMARK   20  A    between atoms: _43  and  _44
REMARK   21  A    between atoms: _46  and  _48
REMARK   22  A    between atoms: _48  and  _49
REMARK   23  A    between atoms: _48  and  _51
REMARK   24  A    between atoms: _51  and  _52
REMARK   25  A    between atoms: _58  and  _60
REMARK   26  A    between atoms: _60  and  _61
REMARK   27  A    between atoms: _60  and  _63
REMARK   28  A    between atoms: _63  and  _64
REMARK   29  A    between atoms: _69  and  _70
REMARK   30  A    between atoms: _72  and  _74
REMARK   31  A    between atoms: _74  and  _75
REMARK   32  A    between atoms: _74  and  _77
REMARK   33  A    between atoms: _77  and  _78
REMARK   34  A    between atoms: _81  and  _82
REMARK   35  A    between atoms: _87  and  _89
REMARK   36  A    between atoms: _89  and  _90
REMARK   37  A    between atoms: _92  and  _94
REMARK   38  A    between atoms: _94  and  _95
REMARK   39  A    between atoms: _94  and  _97
REMARK   40  A    between atoms: _97  and  _98
REMARK   41  A    between atoms: _98  and  _99
REMARK   42  A    between atoms: _104  and  _106
REMARK   43  A    between atoms: _106  and  _107
REMARK   44  A    between atoms: _106  and  _109
REMARK   45  A    between atoms: _109  and  _110
REMARK   46  A    between atoms: _110  and  _111
REMARK   47  A    between atoms: _111  and  _112
REMARK   48  A    between atoms: _121  and  _123
REMARK   49  A    between atoms: _123  and  _124
REMARK   50  A    between atoms: _123  and  _126
REMARK   51  A    between atoms: _129  and  _131
REMARK   52  A    between atoms: _131  and  _132
REMARK   53  A    between atoms: _131  and  _134
REMARK   54  A    between atoms: _134  and  _135
REMARK   55  A    between atoms: _138  and  _140
REMARK   56  A    between atoms: _140  and  _141
REMARK   57  A    between atoms: _140  and  _143
REMARK   58  A    between atoms: _143  and  _144
REMARK   59  A    between atoms: _147  and  _149
REMARK   60  A    between atoms: _149  and  _150
REMARK   61  A    between atoms: _149  and  _152
REMARK   62  A    between atoms: _152  and  _153
REMARK   63  A    between atoms: _155  and  _157
REMARK   64  A    between atoms: _157  and  _158
REMARK   65  A    between atoms: _157  and  _160
REMARK   66  A    between atoms: _160  and  _161
REMARK   67  A    between atoms: _164  and  _166
REMARK   68  A    between atoms: _166  and  _167
REMARK   69  A    between atoms: _166  and  _169
REMARK   70  A    between atoms: _169  and  _170
REMARK   71  A    between atoms: _172  and  _174
REMARK   72  A    between atoms: _174  and  _175
REMARK   73  A    between atoms: _174  and  _177
REMARK   74  A    between atoms: _177  and  _178
REMARK   75  A    between atoms: _183  and  _185
REMARK   76  A    between atoms: _185  and  _186
REMARK   77  A    between atoms: _185  and  _188
REMARK   78  A    between atoms: _188  and  _189
REMARK   79  A    between atoms: _192  and  _194
REMARK   80  A    between atoms: _194  and  _195
REMARK   81  A    between atoms: _194  and  _197
REMARK   82  A    between atoms: _199  and  _201
REMARK   83  A    between atoms: _201  and  _202
REMARK   84  A    between atoms: _204  and  _206
REMARK   85  A    between atoms: _206  and  _207
REMARK   86  A    between atoms: _206  and  _209
REMARK   87  A    between atoms: _209  and  _210
REMARK   88  A    between atoms: _213  and  _215
REMARK   89  A    between atoms: _215  and  _216
REMARK   90  A    between atoms: _215  and  _218
REMARK   91  A    between atoms: _218  and  _219
REMARK   92  A    between atoms: _222  and  _224
REMARK   93  A    between atoms: _224  and  _225
REMARK   94  A    between atoms: _224  and  _227
REMARK   95  A    between atoms: _227  and  _228
REMARK   96  A    between atoms: _230  and  _232
REMARK   97  A    between atoms: _232  and  _233
REMARK   98  A    between atoms: _232  and  _235
REMARK   99  A    between atoms: _237  and  _239
REMARK  100  A    between atoms: _239  and  _240
REMARK  101  A    between atoms: _239  and  _242
REMARK  102  A    between atoms: _242  and  _243
REMARK  103  A    between atoms: _245  and  _247
REMARK  104  A    between atoms: _247  and  _248
REMARK  105  A    between atoms: _247  and  _250
REMARK  106  A    between atoms: _250  and  _251
REMARK  107  A    between atoms: _253  and  _255
REMARK  108  A    between atoms: _255  and  _256
REMARK  109  A    between atoms: _255  and  _258
REMARK  110  A    between atoms: _258  and  _259
REMARK  111  A    between atoms: _264  and  _266
REMARK  112  A    between atoms: _266  and  _267
REMARK  113  A    between atoms: _266  and  _269
REMARK  114  A    between atoms: _269  and  _270
REMARK  115  A    between atoms: _275  and  _276
REMARK  116  A    between atoms: _278  and  _280
REMARK  117  A    between atoms: _280  and  _281
REMARK  118  A    between atoms: _280  and  _283
REMARK  119  A    between atoms: _283  and  _284
REMARK  120  A    between atoms: _287  and  _289
REMARK  121  A    between atoms: _289  and  _290
REMARK  122  A    between atoms: _289  and  _292
REMARK  123  A    between atoms: _292  and  _293
REMARK  124  A    between atoms: _296  and  _298
REMARK  125  A    between atoms: _298  and  _299
REMARK  126  A    between atoms: _298  and  _301
REMARK  127  A    between atoms: _301  and  _302
REMARK  128  A    between atoms: _302  and  _303
REMARK  129  A    between atoms: _303  and  _304
REMARK  130  A    between atoms: _313  and  _315
REMARK  131  A    between atoms: _315  and  _316
REMARK  132  A    between atoms: _315  and  _318
REMARK  133  A    between atoms: _318  and  _319
REMARK  134  A    between atoms: _323  and  _324
REMARK  135  A    between atoms: _329  and  _331
REMARK  136  A    between atoms: _331  and  _332
REMARK  137  A    between atoms: _331  and  _334
REMARK  138  A    between atoms: _334  and  _335
REMARK  139  A    between atoms: _335  and  _336
REMARK  140  A    between atoms: _336  and  _337
REMARK  141  A    between atoms: _346  and  _348
REMARK  142  A    between atoms: _348  and  _349
REMARK  143  A    between atoms: _348  and  _351
REMARK  144  A    between atoms: _351  and  _352
REMARK  145  A    between atoms: _352  and  _353
REMARK  146  A    between atoms: _356  and  _358
REMARK  147  A    between atoms: _358  and  _359
REMARK  148  A    between atoms: _358  and  _361
REMARK  149  A    between atoms: _364  and  _366
REMARK  150  A    between atoms: _366  and  _367
REMARK  151  A    between atoms: _366  and  _369
REMARK  152  A    between atoms: _369  and  _370
REMARK  153  A    between atoms: _375  and  _377
REMARK  154  A    between atoms: _377  and  _378
REMARK  155  A    between atoms: _377  and  _380
REMARK  156  A    between atoms: _380  and  _381
REMARK  157  A    between atoms: _383  and  _385
REMARK  158  A    between atoms: _385  and  _386
REMARK  159  A    between atoms: _385  and  _388
REMARK  160  A    between atoms: _388  and  _389
REMARK  161  A    between atoms: _399  and  _401
REMARK  162  A    between atoms: _401  and  _402
REMARK  163  A    between atoms: _401  and  _404
REMARK  164  A    between atoms: _404  and  _405
REMARK  165  A    between atoms: _408  and  _410
REMARK  166  A    between atoms: _410  and  _411
REMARK  167  A    between atoms: _413  and  _415
REMARK  168  A    between atoms: _415  and  _416
REMARK  169  A    between atoms: _415  and  _418
REMARK  170  A    between atoms: _418  and  _419
REMARK  171  A    between atoms: _424  and  _426
REMARK  172  A    between atoms: _426  and  _427
REMARK  173  A    between atoms: _426  and  _429
REMARK  174  A    between atoms: _429  and  _430
REMARK  175  A    between atoms: _433  and  _435
REMARK  176  A    between atoms: _435  and  _436
REMARK  177  A    between atoms: _435  and  _438
REMARK  178  A    between atoms: _438  and  _439
REMARK  179  A    between atoms: _442  and  _444
REMARK  180  A    between atoms: _444  and  _445
REMARK  181  A    between atoms: _444  and  _447
REMARK  182  A    between atoms: _447  and  _448
REMARK  183  A    between atoms: _448  and  _449
REMARK  184  A    between atoms: _451  and  _453
REMARK  185  A    between atoms: _453  and  _454
REMARK  186  A    between atoms: _453  and  _456
REMARK  187  A    between atoms: _456  and  _457
REMARK  188  A    between atoms: _463  and  _465
REMARK  189  A    between atoms: _465  and  _466
REMARK  190  A    between atoms: _470  and  _471
REMARK  191  A    between atoms: _476  and  _478
REMARK  192  A    between atoms: _478  and  _479
REMARK  193  A    between atoms: _478  and  _481
REMARK  194  A    between atoms: _481  and  _482
REMARK  195  A    between atoms: _485  and  _487
REMARK  196  A    between atoms: _487  and  _488
REMARK  197  A    between atoms: _487  and  _490
REMARK  198  A    between atoms: _490  and  _491
REMARK  199  A    between atoms: _501  and  _503
REMARK  200  A    between atoms: _503  and  _504
REMARK  201  A    between atoms: _503  and  _506
REMARK  202  A    between atoms: _508  and  _510
REMARK  203  A    between atoms: _510  and  _511
REMARK  204  A    between atoms: _510  and  _513
REMARK  205  A    between atoms: _513  and  _514
REMARK  206  A    between atoms: _514  and  _515
REMARK  207  A    between atoms: _518  and  _520
REMARK  208  A    between atoms: _520  and  _521
REMARK  209  A    between atoms: _520  and  _523
REMARK  210  A    between atoms: _523  and  _524
REMARK  211  A    between atoms: _527  and  _529
REMARK  212  A    between atoms: _529  and  _530
REMARK  213  A    between atoms: _529  and  _532
REMARK  214  A    between atoms: _532  and  _533
REMARK  215  A    between atoms: _538  and  _539
REMARK  216  A    between atoms: _541  and  _543
REMARK  217  A    between atoms: _543  and  _544
REMARK  218  A    between atoms: _546  and  _548
REMARK  219  A    between atoms: _548  and  _549
REMARK  220  A    between atoms: _552  and  _554
REMARK  221  A    between atoms: _554  and  _555
REMARK  222  A    between atoms: _554  and  _557
REMARK  223  A    between atoms: _559  and  _561
REMARK  224  A    between atoms: _561  and  _562
REMARK  225  A    between atoms: _561  and  _564
REMARK  226  A    between atoms: _564  and  _565
REMARK  227  A    between atoms: _570  and  _571
REMARK  228  A    between atoms: _573  and  _575
REMARK  229  A    between atoms: _575  and  _576
REMARK  230  A    between atoms: _575  and  _578
REMARK  231  A    between atoms: _578  and  _579
REMARK  232  A    between atoms: _584  and  _586
REMARK  233  A    between atoms: _586  and  _587
REMARK  234  A    between atoms: _586  and  _589
REMARK  235  A    between atoms: _589  and  _590
REMARK  236  A    between atoms: _596  and  _598
REMARK  237  A    between atoms: _598  and  _599
REMARK  238  A    between atoms: _602  and  _604
REMARK  239  A    between atoms: _604  and  _605
REMARK  240  A    between atoms: _607  and  _609
REMARK  241  A    between atoms: _609  and  _610
REMARK  242  A    between atoms: _609  and  _612
REMARK  243  A    between atoms: _612  and  _613
REMARK  244  A    between atoms: _618  and  _619
REMARK  245  A    between atoms: _621  and  _623
REMARK  246  A    between atoms: _623  and  _624
REMARK  247  A    between atoms: _623  and  _626
REMARK  248  A    between atoms: _626  and  _627
REMARK  249  A    between atoms: _629  and  _631
REMARK  250  A    between atoms: _631  and  _632
REMARK  251  A    between atoms: _634  and  _636
REMARK  252  A    between atoms: _636  and  _637
REMARK                            x       y       z     vdW  Elec       q    Type
REMARK                         _______ _______ _______ _____ _____    ______ ____
ROOT
ATOM      1  O   HOH     1      32.327  -4.378 -23.381  0.00  0.00    +0.000 OA
ENDROOT
TORSDOF 0
REMARK  Name = ../refined-set-2016/3hkw/3hkw_pocket.pdb
REMARK  252 active torsions:
REMARK  status: ('A' for Active; 'I' for Inactive)
REMARK    1  A    between atoms: _1  and  _3
REMARK    2  A    between atoms: _3  and  _4
REMARK    3  A    between atoms: _3  and  _6
REMARK    4  A    between atoms: _6  and  _7
REMARK    5  A    between atoms: _7  and  _8
REMARK    6  A    between atoms: _8  and  _9
REMARK    7  A    between atoms: _9  and  _10
REMARK    8  A    between atoms: _14  and  _16
REMARK    9  A    between atoms: _16  and  _17
REMARK   10  A    between atoms: _16  and  _19
REMARK   11  A    between atoms: _19  and  _20
REMARK   12  A    between atoms: _20  and  _21
REMARK   13  A    between atoms: _24  and  _26
REMARK   14  A    between atoms: _26  and  _27
REMARK   15  A    between atoms: _26  and  _29
REMARK   16  A    between atoms: _29  and  _30
REMARK   17  A    between atoms: _30  and  _31
REMARK   18  A    between atoms: _31  and  _32
REMARK   19  A    between atoms: _41  and  _43
REMARK   20  A    between atoms: _43  and  _44
REMARK   21  A    between atoms: _46  and  _48
REMARK   22  A    between atoms: _48  and  _49
REMARK   23  A    between atoms: _48  and  _51
REMARK   24  A    between atoms: _51  and  _52
REMARK   25  A    between atoms: _58  and  _60
REMARK   26  A    between atoms: _60  and  _61
REMARK   27  A    between atoms: _60  and  _63
REMARK   28  A    between atoms: _63  and  _64
REMARK   29  A    between atoms: _69  and  _70
REMARK   30  A    between atoms: _72  and  _74
REMARK   31  A    between atoms: _74  and  _75
REMARK   32  A    between atoms: _74  and  _77
REMARK   33  A    between atoms: _77  and  _78
REMARK   34  A    between atoms: _81  and  _82
REMARK   35  A    between atoms: _87  and  _89
REMARK   36  A    between atoms: _89  and  _90
REMARK   37  A    between atoms: _92  and  _94
REMARK   38  A    between atoms: _94  and  _95
REMARK   39  A    between atoms: _94  and  _97
REMARK   40  A    between atoms: _97  and  _98
REMARK   41  A    between atoms: _98  and  _99
REMARK   42  A    between atoms: _104  and  _106
REMARK   43  A    between atoms: _106  and  _107
REMARK   44  A    between atoms: _106  and  _109
REMARK   45  A    between atoms: _109  and  _110
REMARK   46  A    between atoms: _110  and  _111
REMARK   47  A    between atoms: _111  and  _112
REMARK   48  A    between atoms: _121  and  _123
REMARK   49  A    between atoms: _123  and  _124
REMARK   50  A    between atoms: _123  and  _126
REMARK   51  A    between atoms: _129  and  _131
REMARK   52  A    between atoms: _131  and  _132
REMARK   53  A    between atoms: _131  and  _134
REMARK   54  A    between atoms: _134  and  _135
REMARK   55  A    between atoms: _138  and  _140
REMARK   56  A    between atoms: _140  and  _141
REMARK   57  A    between atoms: _140  and  _143
REMARK   58  A    between atoms: _143  and  _144
REMARK   59  A    between atoms: _147  and  _149
REMARK   60  A    between atoms: _149  and  _150
REMARK   61  A    between atoms: _149  and  _152
REMARK   62  A    between atoms: _152  and  _153
REMARK   63  A    between atoms: _155  and  _157
REMARK   64  A    between atoms: _157  and  _158
REMARK   65  A    between atoms: _157  and  _160
REMARK   66  A    between atoms: _160  and  _161
REMARK   67  A    between atoms: _164  and  _166
REMARK   68  A    between atoms: _166  and  _167
REMARK   69  A    between atoms: _166  and  _169
REMARK   70  A    between atoms: _169  and  _170
REMARK   71  A    between atoms: _172  and  _174
REMARK   72  A    between atoms: _174  and  _175
REMARK   73  A    between atoms: _174  and  _177
REMARK   74  A    between atoms: _177  and  _178
REMARK   75  A    between atoms: _183  and  _185
REMARK   76  A    between atoms: _185  and  _186
REMARK   77  A    between atoms: _185  and  _188
REMARK   78  A    between atoms: _188  and  _189
REMARK   79  A    between atoms: _192  and  _194
REMARK   80  A    between atoms: _194  and  _195
REMARK   81  A    between atoms: _194  and  _197
REMARK   82  A    between atoms: _199  and  _201
REMARK   83  A    between atoms: _201  and  _202
REMARK   84  A    between atoms: _204  and  _206
REMARK   85  A    between atoms: _206  and  _207
REMARK   86  A    between atoms: _206  and  _209
REMARK   87  A    between atoms: _209  and  _210
REMARK   88  A    between atoms: _213  and  _215
REMARK   89  A    between atoms: _215  and  _216
REMARK   90  A    between atoms: _215  and  _218
REMARK   91  A    between atoms: _218  and  _219
REMARK   92  A    between atoms: _222  and  _224
REMARK   93  A    between atoms: _224  and  _225
REMARK   94  A    between atoms: _224  and  _227
REMARK   95  A    between atoms: _227  and  _228
REMARK   96  A    between atoms: _230  and  _232
REMARK   97  A    between atoms: _232  and  _233
REMARK   98  A    between atoms: _232  and  _235
REMARK   99  A    between atoms: _237  and  _239
REMARK  100  A    between atoms: _239  and  _240
REMARK  101  A    between atoms: _239  and  _242
REMARK  102  A    between atoms: _242  and  _243
REMARK  103  A    between atoms: _245  and  _247
REMARK  104  A    between atoms: _247  and  _248
REMARK  105  A    between atoms: _247  and  _250
REMARK  106  A    between atoms: _250  and  _251
REMARK  107  A    between atoms: _253  and  _255
REMARK  108  A    between atoms: _255  and  _256
REMARK  109  A    between atoms: _255  and  _258
REMARK  110  A    between atoms: _258  and  _259
REMARK  111  A    between atoms: _264  and  _266
REMARK  112  A    between atoms: _266  and  _267
REMARK  113  A    between atoms: _266  and  _269
REMARK  114  A    between atoms: _269  and  _270
REMARK  115  A    between atoms: _275  and  _276
REMARK  116  A    between atoms: _278  and  _280
REMARK  117  A    between atoms: _280  and  _281
REMARK  118  A    between atoms: _280  and  _283
REMARK  119  A    between atoms: _283  and  _284
REMARK  120  A    between atoms: _287  and  _289
REMARK  121  A    between atoms: _289  and  _290
REMARK  122  A    between atoms: _289  and  _292
REMARK  123  A    between atoms: _292  and  _293
REMARK  124  A    between atoms: _296  and  _298
REMARK  125  A    between atoms: _298  and  _299
REMARK  126  A    between atoms: _298  and  _301
REMARK  127  A    between atoms: _301  and  _302
REMARK  128  A    between atoms: _302  and  _303
REMARK  129  A    between atoms: _303  and  _304
REMARK  130  A    between atoms: _313  and  _315
REMARK  131  A    between atoms: _315  and  _316
REMARK  132  A    between atoms: _315  and  _318
REMARK  133  A    between atoms: _318  and  _319
REMARK  134  A    between atoms: _323  and  _324
REMARK  135  A    between atoms: _329  and  _331
REMARK  136  A    between atoms: _331  and  _332
REMARK  137  A    between atoms: _331  and  _334
REMARK  138  A    between atoms: _334  and  _335
REMARK  139  A    between atoms: _335  and  _336
REMARK  140  A    between atoms: _336  and  _337
REMARK  141  A    between atoms: _346  and  _348
REMARK  142  A    between atoms: _348  and  _349
REMARK  143  A    between atoms: _348  and  _351
REMARK  144  A    between atoms: _351  and  _352
REMARK  145  A    between atoms: _352  and  _353
REMARK  146  A    between atoms: _356  and  _358
REMARK  147  A    between atoms: _358  and  _359
REMARK  148  A    between atoms: _358  and  _361
REMARK  149  A    between atoms: _364  and  _366
REMARK  150  A    between atoms: _366  and  _367
REMARK  151  A    between atoms: _366  and  _369
REMARK  152  A    between atoms: _369  and  _370
REMARK  153  A    between atoms: _375  and  _377
REMARK  154  A    between atoms: _377  and  _378
REMARK  155  A    between atoms: _377  and  _380
REMARK  156  A    between atoms: _380  and  _381
REMARK  157  A    between atoms: _383  and  _385
REMARK  158  A    between atoms: _385  and  _386
REMARK  159  A    between atoms: _385  and  _388
REMARK  160  A    between atoms: _388  and  _389
REMARK  161  A    between atoms: _399  and  _401
REMARK  162  A    between atoms: _401  and  _402
REMARK  163  A    between atoms: _401  and  _404
REMARK  164  A    between atoms: _404  and  _405
REMARK  165  A    between atoms: _408  and  _410
REMARK  166  A    between atoms: _410  and  _411
REMARK  167  A    between atoms: _413  and  _415
REMARK  168  A    between atoms: _415  and  _416
REMARK  169  A    between atoms: _415  and  _418
REMARK  170  A    between atoms: _418  and  _419
REMARK  171  A    between atoms: _424  and  _426
REMARK  172  A    between atoms: _426  and  _427
REMARK  173  A    between atoms: _426  and  _429
REMARK  174  A    between atoms: _429  and  _430
REMARK  175  A    between atoms: _433  and  _435
REMARK  176  A    between atoms: _435  and  _436
REMARK  177  A    between atoms: _435  and  _438
REMARK  178  A    between atoms: _438  and  _439
REMARK  179  A    between atoms: _442  and  _444
REMARK  180  A    between atoms: _444  and  _445
REMARK  181  A    between atoms: _444  and  _447
REMARK  182  A    between atoms: _447  and  _448
REMARK  183  A    between atoms: _448  and  _449
REMARK  184  A    between atoms: _451  and  _453
REMARK  185  A    between atoms: _453  and  _454
REMARK  186  A    between atoms: _453  and  _456
REMARK  187  A    between atoms: _456  and  _457
REMARK  188  A    between atoms: _463  and  _465
REMARK  189  A    between atoms: _465  and  _466
REMARK  190  A    between atoms: _470  and  _471
REMARK  191  A    between atoms: _476  and  _478
REMARK  192  A    between atoms: _478  and  _479
REMARK  193  A    between atoms: _478  and  _481
REMARK  194  A    between atoms: _481  and  _482
REMARK  195  A    between atoms: _485  and  _487
REMARK  196  A    between atoms: _487  and  _488
REMARK  197  A    between atoms: _487  and  _490
REMARK  198  A    between atoms: _490  and  _491
REMARK  199  A    between atoms: _501  and  _503
REMARK  200  A    between atoms: _503  and  _504
REMARK  201  A    between atoms: _503  and  _506
REMARK  202  A    between atoms: _508  and  _510
REMARK  203  A    between atoms: _510  and  _511
REMARK  204  A    between atoms: _510  and  _513
REMARK  205  A    between atoms: _513  and  _514
REMARK  206  A    between atoms: _514  and  _515
REMARK  207  A    between atoms: _518  and  _520
REMARK  208  A    between atoms: _520  and  _521
REMARK  209  A    between atoms: _520  and  _523
REMARK  210  A    between atoms: _523  and  _524
REMARK  211  A    between atoms: _527  and  _529
REMARK  212  A    between atoms: _529  and  _530
REMARK  213  A    between atoms: _529  and  _532
REMARK  214  A    between atoms: _532  and  _533
REMARK  215  A    between atoms: _538  and  _539
REMARK  216  A    between atoms: _541  and  _543
REMARK  217  A    between atoms: _543  and  _544
REMARK  218  A    between atoms: _546  and  _548
REMARK  219  A    between atoms: _548  and  _549
REMARK  220  A    between atoms: _552  and  _554
REMARK  221  A    between atoms: _554  and  _555
REMARK  222  A    between atoms: _554  and  _557
REMARK  223  A    between atoms: _559  and  _561
REMARK  224  A    between atoms: _561  and  _562
REMARK  225  A    between atoms: _561  and  _564
REMARK  226  A    between atoms: _564  and  _565
REMARK  227  A    between atoms: _570  and  _571
REMARK  228  A    between atoms: _573  and  _575
REMARK  229  A    between atoms: _575  and  _576
REMARK  230  A    between atoms: _575  and  _578
REMARK  231  A    between atoms: _578  and  _579
REMARK  232  A    between atoms: _584  and  _586
REMARK  233  A    between atoms: _586  and  _587
REMARK  234  A    between atoms: _586  and  _589
REMARK  235  A    between atoms: _589  and  _590
REMARK  236  A    between atoms: _596  and  _598
REMARK  237  A    between atoms: _598  and  _599
REMARK  238  A    between atoms: _602  and  _604
REMARK  239  A    between atoms: _604  and  _605
REMARK  240  A    between atoms: _607  and  _609
REMARK  241  A    between atoms: _609  and  _610
REMARK  242  A    between atoms: _609  and  _612
REMARK  243  A    between atoms: _612  and  _613
REMARK  244  A    between atoms: _618  and  _619
REMARK  245  A    between atoms: _621  and  _623
REMARK  246  A    between atoms: _623  and  _624
REMARK  247  A    between atoms: _623  and  _626
REMARK  248  A    between atoms: _626  and  _627
REMARK  249  A    between atoms: _629  and  _631
REMARK  250  A    between atoms: _631  and  _632
REMARK  251  A    between atoms: _634  and  _636
REMARK  252  A    between atoms: _636  and  _637
REMARK                            x       y       z     vdW  Elec       q    Type
REMARK                         _______ _______ _______ _____ _____    ______ ____
ROOT
ATOM      1  O   HOH     1      29.991   8.964 -25.845  0.00  0.00    +0.000 OA
ENDROOT
TORSDOF 0
REMARK  Name = ../refined-set-2016/3hkw/3hkw_pocket.pdb
REMARK  252 active torsions:
REMARK  status: ('A' for Active; 'I' for Inactive)
REMARK    1  A    between atoms: _1  and  _3
REMARK    2  A    between atoms: _3  and  _4
REMARK    3  A    between atoms: _3  and  _6
REMARK    4  A    between atoms: _6  and  _7
REMARK    5  A    between atoms: _7  and  _8
REMARK    6  A    between atoms: _8  and  _9
REMARK    7  A    between atoms: _9  and  _10
REMARK    8  A    between atoms: _14  and  _16
REMARK    9  A    between atoms: _16  and  _17
REMARK   10  A    between atoms: _16  and  _19
REMARK   11  A    between atoms: _19  and  _20
REMARK   12  A    between atoms: _20  and  _21
REMARK   13  A    between atoms: _24  and  _26
REMARK   14  A    between atoms: _26  and  _27
REMARK   15  A    between atoms: _26  and  _29
REMARK   16  A    between atoms: _29  and  _30
REMARK   17  A    between atoms: _30  and  _31
REMARK   18  A    between atoms: _31  and  _32
REMARK   19  A    between atoms: _41  and  _43
REMARK   20  A    between atoms: _43  and  _44
REMARK   21  A    between atoms: _46  and  _48
REMARK   22  A    between atoms: _48  and  _49
REMARK   23  A    between atoms: _48  and  _51
REMARK   24  A    between atoms: _51  and  _52
REMARK   25  A    between atoms: _58  and  _60
REMARK   26  A    between atoms: _60  and  _61
REMARK   27  A    between atoms: _60  and  _63
REMARK   28  A    between atoms: _63  and  _64
REMARK   29  A    between atoms: _69  and  _70
REMARK   30  A    between atoms: _72  and  _74
REMARK   31  A    between atoms: _74  and  _75
REMARK   32  A    between atoms: _74  and  _77
REMARK   33  A    between atoms: _77  and  _78
REMARK   34  A    between atoms: _81  and  _82
REMARK   35  A    between atoms: _87  and  _89
REMARK   36  A    between atoms: _89  and  _90
REMARK   37  A    between atoms: _92  and  _94
REMARK   38  A    between atoms: _94  and  _95
REMARK   39  A    between atoms: _94  and  _97
REMARK   40  A    between atoms: _97  and  _98
REMARK   41  A    between atoms: _98  and  _99
REMARK   42  A    between atoms: _104  and  _106
REMARK   43  A    between atoms: _106  and  _107
REMARK   44  A    between atoms: _106  and  _109
REMARK   45  A    between atoms: _109  and  _110
REMARK   46  A    between atoms: _110  and  _111
REMARK   47  A    between atoms: _111  and  _112
REMARK   48  A    between atoms: _121  and  _123
REMARK   49  A    between atoms: _123  and  _124
REMARK   50  A    between atoms: _123  and  _126
REMARK   51  A    between atoms: _129  and  _131
REMARK   52  A    between atoms: _131  and  _132
REMARK   53  A    between atoms: _131  and  _134
REMARK   54  A    between atoms: _134  and  _135
REMARK   55  A    between atoms: _138  and  _140
REMARK   56  A    between atoms: _140  and  _141
REMARK   57  A    between atoms: _140  and  _143
REMARK   58  A    between atoms: _143  and  _144
REMARK   59  A    between atoms: _147  and  _149
REMARK   60  A    between atoms: _149  and  _150
REMARK   61  A    between atoms: _149  and  _152
REMARK   62  A    between atoms: _152  and  _153
REMARK   63  A    between atoms: _155  and  _157
REMARK   64  A    between atoms: _157  and  _158
REMARK   65  A    between atoms: _157  and  _160
REMARK   66  A    between atoms: _160  and  _161
REMARK   67  A    between atoms: _164  and  _166
REMARK   68  A    between atoms: _166  and  _167
REMARK   69  A    between atoms: _166  and  _169
REMARK   70  A    between atoms: _169  and  _170
REMARK   71  A    between atoms: _172  and  _174
REMARK   72  A    between atoms: _174  and  _175
REMARK   73  A    between atoms: _174  and  _177
REMARK   74  A    between atoms: _177  and  _178
REMARK   75  A    between atoms: _183  and  _185
REMARK   76  A    between atoms: _185  and  _186
REMARK   77  A    between atoms: _185  and  _188
REMARK   78  A    between atoms: _188  and  _189
REMARK   79  A    between atoms: _192  and  _194
REMARK   80  A    between atoms: _194  and  _195
REMARK   81  A    between atoms: _194  and  _197
REMARK   82  A    between atoms: _199  and  _201
REMARK   83  A    between atoms: _201  and  _202
REMARK   84  A    between atoms: _204  and  _206
REMARK   85  A    between atoms: _206  and  _207
REMARK   86  A    between atoms: _206  and  _209
REMARK   87  A    between atoms: _209  and  _210
REMARK   88  A    between atoms: _213  and  _215
REMARK   89  A    between atoms: _215  and  _216
REMARK   90  A    between atoms: _215  and  _218
REMARK   91  A    between atoms: _218  and  _219
REMARK   92  A    between atoms: _222  and  _224
REMARK   93  A    between atoms: _224  and  _225
REMARK   94  A    between atoms: _224  and  _227
REMARK   95  A    between atoms: _227  and  _228
REMARK   96  A    between atoms: _230  and  _232
REMARK   97  A    between atoms: _232  and  _233
REMARK   98  A    between atoms: _232  and  _235
REMARK   99  A    between atoms: _237  and  _239
REMARK  100  A    between atoms: _239  and  _240
REMARK  101  A    between atoms: _239  and  _242
REMARK  102  A    between atoms: _242  and  _243
REMARK  103  A    between atoms: _245  and  _247
REMARK  104  A    between atoms: _247  and  _248
REMARK  105  A    between atoms: _247  and  _250
REMARK  106  A    between atoms: _250  and  _251
REMARK  107  A    between atoms: _253  and  _255
REMARK  108  A    between atoms: _255  and  _256
REMARK  109  A    between atoms: _255  and  _258
REMARK  110  A    between atoms: _258  and  _259
REMARK  111  A    between atoms: _264  and  _266
REMARK  112  A    between atoms: _266  and  _267
REMARK  113  A    between atoms: _266  and  _269
REMARK  114  A    between atoms: _269  and  _270
REMARK  115  A    between atoms: _275  and  _276
REMARK  116  A    between atoms: _278  and  _280
REMARK  117  A    between atoms: _280  and  _281
REMARK  118  A    between atoms: _280  and  _283
REMARK  119  A    between atoms: _283  and  _284
REMARK  120  A    between atoms: _287  and  _289
REMARK  121  A    between atoms: _289  and  _290
REMARK  122  A    between atoms: _289  and  _292
REMARK  123  A    between atoms: _292  and  _293
REMARK  124  A    between atoms: _296  and  _298
REMARK  125  A    between atoms: _298  and  _299
REMARK  126  A    between atoms: _298  and  _301
REMARK  127  A    between atoms: _301  and  _302
REMARK  128  A    between atoms: _302  and  _303
REMARK  129  A    between atoms: _303  and  _304
REMARK  130  A    between atoms: _313  and  _315
REMARK  131  A    between atoms: _315  and  _316
REMARK  132  A    between atoms: _315  and  _318
REMARK  133  A    between atoms: _318  and  _319
REMARK  134  A    between atoms: _323  and  _324
REMARK  135  A    between atoms: _329  and  _331
REMARK  136  A    between atoms: _331  and  _332
REMARK  137  A    between atoms: _331  and  _334
REMARK  138  A    between atoms: _334  and  _335
REMARK  139  A    between atoms: _335  and  _336
REMARK  140  A    between atoms: _336  and  _337
REMARK  141  A    between atoms: _346  and  _348
REMARK  142  A    between atoms: _348  and  _349
REMARK  143  A    between atoms: _348  and  _351
REMARK  144  A    between atoms: _351  and  _352
REMARK  145  A    between atoms: _352  and  _353
REMARK  146  A    between atoms: _356  and  _358
REMARK  147  A    between atoms: _358  and  _359
REMARK  148  A    between atoms: _358  and  _361
REMARK  149  A    between atoms: _364  and  _366
REMARK  150  A    between atoms: _366  and  _367
REMARK  151  A    between atoms: _366  and  _369
REMARK  152  A    between atoms: _369  and  _370
REMARK  153  A    between atoms: _375  and  _377
REMARK  154  A    between atoms: _377  and  _378
REMARK  155  A    between atoms: _377  and  _380
REMARK  156  A    between atoms: _380  and  _381
REMARK  157  A    between atoms: _383  and  _385
REMARK  158  A    between atoms: _385  and  _386
REMARK  159  A    between atoms: _385  and  _388
REMARK  160  A    between atoms: _388  and  _389
REMARK  161  A    between atoms: _399  and  _401
REMARK  162  A    between atoms: _401  and  _402
REMARK  163  A    between atoms: _401  and  _404
REMARK  164  A    between atoms: _404  and  _405
REMARK  165  A    between atoms: _408  and  _410
REMARK  166  A    between atoms: _410  and  _411
REMARK  167  A    between atoms: _413  and  _415
REMARK  168  A    between atoms: _415  and  _416
REMARK  169  A    between atoms: _415  and  _418
REMARK  170  A    between atoms: _418  and  _419
REMARK  171  A    between atoms: _424  and  _426
REMARK  172  A    between atoms: _426  and  _427
REMARK  173  A    between atoms: _426  and  _429
REMARK  174  A    between atoms: _429  and  _430
REMARK  175  A    between atoms: _433  and  _435
REMARK  176  A    between atoms: _435  and  _436
REMARK  177  A    between atoms: _435  and  _438
REMARK  178  A    between atoms: _438  and  _439
REMARK  179  A    between atoms: _442  and  _444
REMARK  180  A    between atoms: _444  and  _445
REMARK  181  A    between atoms: _444  and  _447
REMARK  182  A    between atoms: _447  and  _448
REMARK  183  A    between atoms: _448  and  _449
REMARK  184  A    between atoms: _451  and  _453
REMARK  185  A    between atoms: _453  and  _454
REMARK  186  A    between atoms: _453  and  _456
REMARK  187  A    between atoms: _456  and  _457
REMARK  188  A    between atoms: _463  and  _465
REMARK  189  A    between atoms: _465  and  _466
REMARK  190  A    between atoms: _470  and  _471
REMARK  191  A    between atoms: _476  and  _478
REMARK  192  A    between atoms: _478  and  _479
REMARK  193  A    between atoms: _478  and  _481
REMARK  194  A    between atoms: _481  and  _482
REMARK  195  A    between atoms: _485  and  _487
REMARK  196  A    between atoms: _487  and  _488
REMARK  197  A    between atoms: _487  and  _490
REMARK  198  A    between atoms: _490  and  _491
REMARK  199  A    between atoms: _501  and  _503
REMARK  200  A    between atoms: _503  and  _504
REMARK  201  A    between atoms: _503  and  _506
REMARK  202  A    between atoms: _508  and  _510
REMARK  203  A    between atoms: _510  and  _511
REMARK  204  A    between atoms: _510  and  _513
REMARK  205  A    between atoms: _513  and  _514
REMARK  206  A    between atoms: _514  and  _515
REMARK  207  A    between atoms: _518  and  _520
REMARK  208  A    between atoms: _520  and  _521
REMARK  209  A    between atoms: _520  and  _523
REMARK  210  A    between atoms: _523  and  _524
REMARK  211  A    between atoms: _527  and  _529
REMARK  212  A    between atoms: _529  and  _530
REMARK  213  A    between atoms: _529  and  _532
REMARK  214  A    between atoms: _532  and  _533
REMARK  215  A    between atoms: _538  and  _539
REMARK  216  A    between atoms: _541  and  _543
REMARK  217  A    between atoms: _543  and  _544
REMARK  218  A    between atoms: _546  and  _548
REMARK  219  A    between atoms: _548  and  _549
REMARK  220  A    between atoms: _552  and  _554
REMARK  221  A    between atoms: _554  and  _555
REMARK  222  A    between atoms: _554  and  _557
REMARK  223  A    between atoms: _559  and  _561
REMARK  224  A    between atoms: _561  and  _562
REMARK  225  A    between atoms: _561  and  _564
REMARK  226  A    between atoms: _564  and  _565
REMARK  227  A    between atoms: _570  and  _571
REMARK  228  A    between atoms: _573  and  _575
REMARK  229  A    between atoms: _575  and  _576
REMARK  230  A    between atoms: _575  and  _578
REMARK  231  A    between atoms: _578  and  _579
REMARK  232  A    between atoms: _584  and  _586
REMARK  233  A    between atoms: _586  and  _587
REMARK  234  A    between atoms: _586  and  _589
REMARK  235  A    between atoms: _589  and  _590
REMARK  236  A    between atoms: _596  and  _598
REMARK  237  A    between atoms: _598  and  _599
REMARK  238  A    between atoms: _602  and  _604
REMARK  239  A    between atoms: _604  and  _605
REMARK  240  A    between atoms: _607  and  _609
REMARK  241  A    between atoms: _609  and  _610
REMARK  242  A    between atoms: _609  and  _612
REMARK  243  A    between atoms: _612  and  _613
REMARK  244  A    between atoms: _618  and  _619
REMARK  245  A    between atoms: _621  and  _623
REMARK  246  A    between atoms: _623  and  _624
REMARK  247  A    between atoms: _623  and  _626
REMARK  248  A    between atoms: _626  and  _627
REMARK  249  A    between atoms: _629  and  _631
REMARK  250  A    between atoms: _631  and  _632
REMARK  251  A    between atoms: _634  and  _636
REMARK  252  A    between atoms: _636  and  _637
REMARK                            x       y       z     vdW  Elec       q    Type
REMARK                         _______ _______ _______ _____ _____    ______ ____
ROOT
ATOM      1  O   HOH     1      36.065  -2.640 -29.414  0.00  0.00    +0.000 OA
ENDROOT
TORSDOF 0
REMARK  Name = ../refined-set-2016/3hkw/3hkw_pocket.pdb
REMARK  252 active torsions:
REMARK  status: ('A' for Active; 'I' for Inactive)
REMARK    1  A    between atoms: _1  and  _3
REMARK    2  A    between atoms: _3  and  _4
REMARK    3  A    between atoms: _3  and  _6
REMARK    4  A    between atoms: _6  and  _7
REMARK    5  A    between atoms: _7  and  _8
REMARK    6  A    between atoms: _8  and  _9
REMARK    7  A    between atoms: _9  and  _10
REMARK    8  A    between atoms: _14  and  _16
REMARK    9  A    between atoms: _16  and  _17
REMARK   10  A    between atoms: _16  and  _19
REMARK   11  A    between atoms: _19  and  _20
REMARK   12  A    between atoms: _20  and  _21
REMARK   13  A    between atoms: _24  and  _26
REMARK   14  A    between atoms: _26  and  _27
REMARK   15  A    between atoms: _26  and  _29
REMARK   16  A    between atoms: _29  and  _30
REMARK   17  A    between atoms: _30  and  _31
REMARK   18  A    between atoms: _31  and  _32
REMARK   19  A    between atoms: _41  and  _43
REMARK   20  A    between atoms: _43  and  _44
REMARK   21  A    between atoms: _46  and  _48
REMARK   22  A    between atoms: _48  and  _49
REMARK   23  A    between atoms: _48  and  _51
REMARK   24  A    between atoms: _51  and  _52
REMARK   25  A    between atoms: _58  and  _60
REMARK   26  A    between atoms: _60  and  _61
REMARK   27  A    between atoms: _60  and  _63
REMARK   28  A    between atoms: _63  and  _64
REMARK   29  A    between atoms: _69  and  _70
REMARK   30  A    between atoms: _72  and  _74
REMARK   31  A    between atoms: _74  and  _75
REMARK   32  A    between atoms: _74  and  _77
REMARK   33  A    between atoms: _77  and  _78
REMARK   34  A    between atoms: _81  and  _82
REMARK   35  A    between atoms: _87  and  _89
REMARK   36  A    between atoms: _89  and  _90
REMARK   37  A    between atoms: _92  and  _94
REMARK   38  A    between atoms: _94  and  _95
REMARK   39  A    between atoms: _94  and  _97
REMARK   40  A    between atoms: _97  and  _98
REMARK   41  A    between atoms: _98  and  _99
REMARK   42  A    between atoms: _104  and  _106
REMARK   43  A    between atoms: _106  and  _107
REMARK   44  A    between atoms: _106  and  _109
REMARK   45  A    between atoms: _109  and  _110
REMARK   46  A    between atoms: _110  and  _111
REMARK   47  A    between atoms: _111  and  _112
REMARK   48  A    between atoms: _121  and  _123
REMARK   49  A    between atoms: _123  and  _124
REMARK   50  A    between atoms: _123  and  _126
REMARK   51  A    between atoms: _129  and  _131
REMARK   52  A    between atoms: _131  and  _132
REMARK   53  A    between atoms: _131  and  _134
REMARK   54  A    between atoms: _134  and  _135
REMARK   55  A    between atoms: _138  and  _140
REMARK   56  A    between atoms: _140  and  _141
REMARK   57  A    between atoms: _140  and  _143
REMARK   58  A    between atoms: _143  and  _144
REMARK   59  A    between atoms: _147  and  _149
REMARK   60  A    between atoms: _149  and  _150
REMARK   61  A    between atoms: _149  and  _152
REMARK   62  A    between atoms: _152  and  _153
REMARK   63  A    between atoms: _155  and  _157
REMARK   64  A    between atoms: _157  and  _158
REMARK   65  A    between atoms: _157  and  _160
REMARK   66  A    between atoms: _160  and  _161
REMARK   67  A    between atoms: _164  and  _166
REMARK   68  A    between atoms: _166  and  _167
REMARK   69  A    between atoms: _166  and  _169
REMARK   70  A    between atoms: _169  and  _170
REMARK   71  A    between atoms: _172  and  _174
REMARK   72  A    between atoms: _174  and  _175
REMARK   73  A    between atoms: _174  and  _177
REMARK   74  A    between atoms: _177  and  _178
REMARK   75  A    between atoms: _183  and  _185
REMARK   76  A    between atoms: _185  and  _186
REMARK   77  A    between atoms: _185  and  _188
REMARK   78  A    between atoms: _188  and  _189
REMARK   79  A    between atoms: _192  and  _194
REMARK   80  A    between atoms: _194  and  _195
REMARK   81  A    between atoms: _194  and  _197
REMARK   82  A    between atoms: _199  and  _201
REMARK   83  A    between atoms: _201  and  _202
REMARK   84  A    between atoms: _204  and  _206
REMARK   85  A    between atoms: _206  and  _207
REMARK   86  A    between atoms: _206  and  _209
REMARK   87  A    between atoms: _209  and  _210
REMARK   88  A    between atoms: _213  and  _215
REMARK   89  A    between atoms: _215  and  _216
REMARK   90  A    between atoms: _215  and  _218
REMARK   91  A    between atoms: _218  and  _219
REMARK   92  A    between atoms: _222  and  _224
REMARK   93  A    between atoms: _224  and  _225
REMARK   94  A    between atoms: _224  and  _227
REMARK   95  A    between atoms: _227  and  _228
REMARK   96  A    between atoms: _230  and  _232
REMARK   97  A    between atoms: _232  and  _233
REMARK   98  A    between atoms: _232  and  _235
REMARK   99  A    between atoms: _237  and  _239
REMARK  100  A    between atoms: _239  and  _240
REMARK  101  A    between atoms: _239  and  _242
REMARK  102  A    between atoms: _242  and  _243
REMARK  103  A    between atoms: _245  and  _247
REMARK  104  A    between atoms: _247  and  _248
REMARK  105  A    between atoms: _247  and  _250
REMARK  106  A    between atoms: _250  and  _251
REMARK  107  A    between atoms: _253  and  _255
REMARK  108  A    between atoms: _255  and  _256
REMARK  109  A    between atoms: _255  and  _258
REMARK  110  A    between atoms: _258  and  _259
REMARK  111  A    between atoms: _264  and  _266
REMARK  112  A    between atoms: _266  and  _267
REMARK  113  A    between atoms: _266  and  _269
REMARK  114  A    between atoms: _269  and  _270
REMARK  115  A    between atoms: _275  and  _276
REMARK  116  A    between atoms: _278  and  _280
REMARK  117  A    between atoms: _280  and  _281
REMARK  118  A    between atoms: _280  and  _283
REMARK  119  A    between atoms: _283  and  _284
REMARK  120  A    between atoms: _287  and  _289
REMARK  121  A    between atoms: _289  and  _290
REMARK  122  A    between atoms: _289  and  _292
REMARK  123  A    between atoms: _292  and  _293
REMARK  124  A    between atoms: _296  and  _298
REMARK  125  A    between atoms: _298  and  _299
REMARK  126  A    between atoms: _298  and  _301
REMARK  127  A    between atoms: _301  and  _302
REMARK  128  A    between atoms: _302  and  _303
REMARK  129  A    between atoms: _303  and  _304
REMARK  130  A    between atoms: _313  and  _315
REMARK  131  A    between atoms: _315  and  _316
REMARK  132  A    between atoms: _315  and  _318
REMARK  133  A    between atoms: _318  and  _319
REMARK  134  A    between atoms: _323  and  _324
REMARK  135  A    between atoms: _329  and  _331
REMARK  136  A    between atoms: _331  and  _332
REMARK  137  A    between atoms: _331  and  _334
REMARK  138  A    between atoms: _334  and  _335
REMARK  139  A    between atoms: _335  and  _336
REMARK  140  A    between atoms: _336  and  _337
REMARK  141  A    between atoms: _346  and  _348
REMARK  142  A    between atoms: _348  and  _349
REMARK  143  A    between atoms: _348  and  _351
REMARK  144  A    between atoms: _351  and  _352
REMARK  145  A    between atoms: _352  and  _353
REMARK  146  A    between atoms: _356  and  _358
REMARK  147  A    between atoms: _358  and  _359
REMARK  148  A    between atoms: _358  and  _361
REMARK  149  A    between atoms: _364  and  _366
REMARK  150  A    between atoms: _366  and  _367
REMARK  151  A    between atoms: _366  and  _369
REMARK  152  A    between atoms: _369  and  _370
REMARK  153  A    between atoms: _375  and  _377
REMARK  154  A    between atoms: _377  and  _378
REMARK  155  A    between atoms: _377  and  _380
REMARK  156  A    between atoms: _380  and  _381
REMARK  157  A    between atoms: _383  and  _385
REMARK  158  A    between atoms: _385  and  _386
REMARK  159  A    between atoms: _385  and  _388
REMARK  160  A    between atoms: _388  and  _389
REMARK  161  A    between atoms: _399  and  _401
REMARK  162  A    between atoms: _401  and  _402
REMARK  163  A    between atoms: _401  and  _404
REMARK  164  A    between atoms: _404  and  _405
REMARK  165  A    between atoms: _408  and  _410
REMARK  166  A    between atoms: _410  and  _411
REMARK  167  A    between atoms: _413  and  _415
REMARK  168  A    between atoms: _415  and  _416
REMARK  169  A    between atoms: _415  and  _418
REMARK  170  A    between atoms: _418  and  _419
REMARK  171  A    between atoms: _424  and  _426
REMARK  172  A    between atoms: _426  and  _427
REMARK  173  A    between atoms: _426  and  _429
REMARK  174  A    between atoms: _429  and  _430
REMARK  175  A    between atoms: _433  and  _435
REMARK  176  A    between atoms: _435  and  _436
REMARK  177  A    between atoms: _435  and  _438
REMARK  178  A    between atoms: _438  and  _439
REMARK  179  A    between atoms: _442  and  _444
REMARK  180  A    between atoms: _444  and  _445
REMARK  181  A    between atoms: _444  and  _447
REMARK  182  A    between atoms: _447  and  _448
REMARK  183  A    between atoms: _448  and  _449
REMARK  184  A    between atoms: _451  and  _453
REMARK  185  A    between atoms: _453  and  _454
REMARK  186  A    between atoms: _453  and  _456
REMARK  187  A    between atoms: _456  and  _457
REMARK  188  A    between atoms: _463  and  _465
REMARK  189  A    between atoms: _465  and  _466
REMARK  190  A    between atoms: _470  and  _471
REMARK  191  A    between atoms: _476  and  _478
REMARK  192  A    between atoms: _478  and  _479
REMARK  193  A    between atoms: _478  and  _481
REMARK  194  A    between atoms: _481  and  _482
REMARK  195  A    between atoms: _485  and  _487
REMARK  196  A    between atoms: _487  and  _488
REMARK  197  A    between atoms: _487  and  _490
REMARK  198  A    between atoms: _490  and  _491
REMARK  199  A    between atoms: _501  and  _503
REMARK  200  A    between atoms: _503  and  _504
REMARK  201  A    between atoms: _503  and  _506
REMARK  202  A    between atoms: _508  and  _510
REMARK  203  A    between atoms: _510  and  _511
REMARK  204  A    between atoms: _510  and  _513
REMARK  205  A    between atoms: _513  and  _514
REMARK  206  A    between atoms: _514  and  _515
REMARK  207  A    between atoms: _518  and  _520
REMARK  208  A    between atoms: _520  and  _521
REMARK  209  A    between atoms: _520  and  _523
REMARK  210  A    between atoms: _523  and  _524
REMARK  211  A    between atoms: _527  and  _529
REMARK  212  A    between atoms: _529  and  _530
REMARK  213  A    between atoms: _529  and  _532
REMARK  214  A    between atoms: _532  and  _533
REMARK  215  A    between atoms: _538  and  _539
REMARK  216  A    between atoms: _541  and  _543
REMARK  217  A    between atoms: _543  and  _544
REMARK  218  A    between atoms: _546  and  _548
REMARK  219  A    between atoms: _548  and  _549
REMARK  220  A    between atoms: _552  and  _554
REMARK  221  A    between atoms: _554  and  _555
REMARK  222  A    between atoms: _554  and  _557
REMARK  223  A    between atoms: _559  and  _561
REMARK  224  A    between atoms: _561  and  _562
REMARK  225  A    between atoms: _561  and  _564
REMARK  226  A    between atoms: _564  and  _565
REMARK  227  A    between atoms: _570  and  _571
REMARK  228  A    between atoms: _573  and  _575
REMARK  229  A    between atoms: _575  and  _576
REMARK  230  A    between atoms: _575  and  _578
REMARK  231  A    between atoms: _578  and  _579
REMARK  232  A    between atoms: _584  and  _586
REMARK  233  A    between atoms: _586  and  _587
REMARK  234  A    between atoms: _586  and  _589
REMARK  235  A    between atoms: _589  and  _590
REMARK  236  A    between atoms: _596  and  _598
REMARK  237  A    between atoms: _598  and  _599
REMARK  238  A    between atoms: _602  and  _604
REMARK  239  A    between atoms: _604  and  _605
REMARK  240  A    between atoms: _607  and  _609
REMARK  241  A    between atoms: _609  and  _610
REMARK  242  A    between atoms: _609  and  _612
REMARK  243  A    between atoms: _612  and  _613
REMARK  244  A    between atoms: _618  and  _619
REMARK  245  A    between atoms: _621  and  _623
REMARK  246  A    between atoms: _623  and  _624
REMARK  247  A    between atoms: _623  and  _626
REMARK  248  A    between atoms: _626  and  _627
REMARK  249  A    between atoms: _629  and  _631
REMARK  250  A    between atoms: _631  and  _632
REMARK  251  A    between atoms: _634  and  _636
REMARK  252  A    between atoms: _636  and  _637
REMARK                            x       y       z     vdW  Elec       q    Type
REMARK                         _______ _______ _______ _____ _____    ______ ____
ROOT
ATOM      1  O   HOH     1      34.703  -0.159 -12.921  0.00  0.00    +0.000 OA
ENDROOT
TORSDOF 0
REMARK  Name = ../refined-set-2016/3hkw/3hkw_pocket.pdb
REMARK  252 active torsions:
REMARK  status: ('A' for Active; 'I' for Inactive)
REMARK    1  A    between atoms: _1  and  _3
REMARK    2  A    between atoms: _3  and  _4
REMARK    3  A    between atoms: _3  and  _6
REMARK    4  A    between atoms: _6  and  _7
REMARK    5  A    between atoms: _7  and  _8
REMARK    6  A    between atoms: _8  and  _9
REMARK    7  A    between atoms: _9  and  _10
REMARK    8  A    between atoms: _14  and  _16
REMARK    9  A    between atoms: _16  and  _17
REMARK   10  A    between atoms: _16  and  _19
REMARK   11  A    between atoms: _19  and  _20
REMARK   12  A    between atoms: _20  and  _21
REMARK   13  A    between atoms: _24  and  _26
REMARK   14  A    between atoms: _26  and  _27
REMARK   15  A    between atoms: _26  and  _29
REMARK   16  A    between atoms: _29  and  _30
REMARK   17  A    between atoms: _30  and  _31
REMARK   18  A    between atoms: _31  and  _32
REMARK   19  A    between atoms: _41  and  _43
REMARK   20  A    between atoms: _43  and  _44
REMARK   21  A    between atoms: _46  and  _48
REMARK   22  A    between atoms: _48  and  _49
REMARK   23  A    between atoms: _48  and  _51
REMARK   24  A    between atoms: _51  and  _52
REMARK   25  A    between atoms: _58  and  _60
REMARK   26  A    between atoms: _60  and  _61
REMARK   27  A    between atoms: _60  and  _63
REMARK   28  A    between atoms: _63  and  _64
REMARK   29  A    between atoms: _69  and  _70
REMARK   30  A    between atoms: _72  and  _74
REMARK   31  A    between atoms: _74  and  _75
REMARK   32  A    between atoms: _74  and  _77
REMARK   33  A    between atoms: _77  and  _78
REMARK   34  A    between atoms: _81  and  _82
REMARK   35  A    between atoms: _87  and  _89
REMARK   36  A    between atoms: _89  and  _90
REMARK   37  A    between atoms: _92  and  _94
REMARK   38  A    between atoms: _94  and  _95
REMARK   39  A    between atoms: _94  and  _97
REMARK   40  A    between atoms: _97  and  _98
REMARK   41  A    between atoms: _98  and  _99
REMARK   42  A    between atoms: _104  and  _106
REMARK   43  A    between atoms: _106  and  _107
REMARK   44  A    between atoms: _106  and  _109
REMARK   45  A    between atoms: _109  and  _110
REMARK   46  A    between atoms: _110  and  _111
REMARK   47  A    between atoms: _111  and  _112
REMARK   48  A    between atoms: _121  and  _123
REMARK   49  A    between atoms: _123  and  _124
REMARK   50  A    between atoms: _123  and  _126
REMARK   51  A    between atoms: _129  and  _131
REMARK   52  A    between atoms: _131  and  _132
REMARK   53  A    between atoms: _131  and  _134
REMARK   54  A    between atoms: _134  and  _135
REMARK   55  A    between atoms: _138  and  _140
REMARK   56  A    between atoms: _140  and  _141
REMARK   57  A    between atoms: _140  and  _143
REMARK   58  A    between atoms: _143  and  _144
REMARK   59  A    between atoms: _147  and  _149
REMARK   60  A    between atoms: _149  and  _150
REMARK   61  A    between atoms: _149  and  _152
REMARK   62  A    between atoms: _152  and  _153
REMARK   63  A    between atoms: _155  and  _157
REMARK   64  A    between atoms: _157  and  _158
REMARK   65  A    between atoms: _157  and  _160
REMARK   66  A    between atoms: _160  and  _161
REMARK   67  A    between atoms: _164  and  _166
REMARK   68  A    between atoms: _166  and  _167
REMARK   69  A    between atoms: _166  and  _169
REMARK   70  A    between atoms: _169  and  _170
REMARK   71  A    between atoms: _172  and  _174
REMARK   72  A    between atoms: _174  and  _175
REMARK   73  A    between atoms: _174  and  _177
REMARK   74  A    between atoms: _177  and  _178
REMARK   75  A    between atoms: _183  and  _185
REMARK   76  A    between atoms: _185  and  _186
REMARK   77  A    between atoms: _185  and  _188
REMARK   78  A    between atoms: _188  and  _189
REMARK   79  A    between atoms: _192  and  _194
REMARK   80  A    between atoms: _194  and  _195
REMARK   81  A    between atoms: _194  and  _197
REMARK   82  A    between atoms: _199  and  _201
REMARK   83  A    between atoms: _201  and  _202
REMARK   84  A    between atoms: _204  and  _206
REMARK   85  A    between atoms: _206  and  _207
REMARK   86  A    between atoms: _206  and  _209
REMARK   87  A    between atoms: _209  and  _210
REMARK   88  A    between atoms: _213  and  _215
REMARK   89  A    between atoms: _215  and  _216
REMARK   90  A    between atoms: _215  and  _218
REMARK   91  A    between atoms: _218  and  _219
REMARK   92  A    between atoms: _222  and  _224
REMARK   93  A    between atoms: _224  and  _225
REMARK   94  A    between atoms: _224  and  _227
REMARK   95  A    between atoms: _227  and  _228
REMARK   96  A    between atoms: _230  and  _232
REMARK   97  A    between atoms: _232  and  _233
REMARK   98  A    between atoms: _232  and  _235
REMARK   99  A    between atoms: _237  and  _239
REMARK  100  A    between atoms: _239  and  _240
REMARK  101  A    between atoms: _239  and  _242
REMARK  102  A    between atoms: _242  and  _243
REMARK  103  A    between atoms: _245  and  _247
REMARK  104  A    between atoms: _247  and  _248
REMARK  105  A    between atoms: _247  and  _250
REMARK  106  A    between atoms: _250  and  _251
REMARK  107  A    between atoms: _253  and  _255
REMARK  108  A    between atoms: _255  and  _256
REMARK  109  A    between atoms: _255  and  _258
REMARK  110  A    between atoms: _258  and  _259
REMARK  111  A    between atoms: _264  and  _266
REMARK  112  A    between atoms: _266  and  _267
REMARK  113  A    between atoms: _266  and  _269
REMARK  114  A    between atoms: _269  and  _270
REMARK  115  A    between atoms: _275  and  _276
REMARK  116  A    between atoms: _278  and  _280
REMARK  117  A    between atoms: _280  and  _281
REMARK  118  A    between atoms: _280  and  _283
REMARK  119  A    between atoms: _283  and  _284
REMARK  120  A    between atoms: _287  and  _289
REMARK  121  A    between atoms: _289  and  _290
REMARK  122  A    between atoms: _289  and  _292
REMARK  123  A    between atoms: _292  and  _293
REMARK  124  A    between atoms: _296  and  _298
REMARK  125  A    between atoms: _298  and  _299
REMARK  126  A    between atoms: _298  and  _301
REMARK  127  A    between atoms: _301  and  _302
REMARK  128  A    between atoms: _302  and  _303
REMARK  129  A    between atoms: _303  and  _304
REMARK  130  A    between atoms: _313  and  _315
REMARK  131  A    between atoms: _315  and  _316
REMARK  132  A    between atoms: _315  and  _318
REMARK  133  A    between atoms: _318  and  _319
REMARK  134  A    between atoms: _323  and  _324
REMARK  135  A    between atoms: _329  and  _331
REMARK  136  A    between atoms: _331  and  _332
REMARK  137  A    between atoms: _331  and  _334
REMARK  138  A    between atoms: _334  and  _335
REMARK  139  A    between atoms: _335  and  _336
REMARK  140  A    between atoms: _336  and  _337
REMARK  141  A    between atoms: _346  and  _348
REMARK  142  A    between atoms: _348  and  _349
REMARK  143  A    between atoms: _348  and  _351
REMARK  144  A    between atoms: _351  and  _352
REMARK  145  A    between atoms: _352  and  _353
REMARK  146  A    between atoms: _356  and  _358
REMARK  147  A    between atoms: _358  and  _359
REMARK  148  A    between atoms: _358  and  _361
REMARK  149  A    between atoms: _364  and  _366
REMARK  150  A    between atoms: _366  and  _367
REMARK  151  A    between atoms: _366  and  _369
REMARK  152  A    between atoms: _369  and  _370
REMARK  153  A    between atoms: _375  and  _377
REMARK  154  A    between atoms: _377  and  _378
REMARK  155  A    between atoms: _377  and  _380
REMARK  156  A    between atoms: _380  and  _381
REMARK  157  A    between atoms: _383  and  _385
REMARK  158  A    between atoms: _385  and  _386
REMARK  159  A    between atoms: _385  and  _388
REMARK  160  A    between atoms: _388  and  _389
REMARK  161  A    between atoms: _399  and  _401
REMARK  162  A    between atoms: _401  and  _402
REMARK  163  A    between atoms: _401  and  _404
REMARK  164  A    between atoms: _404  and  _405
REMARK  165  A    between atoms: _408  and  _410
REMARK  166  A    between atoms: _410  and  _411
REMARK  167  A    between atoms: _413  and  _415
REMARK  168  A    between atoms: _415  and  _416
REMARK  169  A    between atoms: _415  and  _418
REMARK  170  A    between atoms: _418  and  _419
REMARK  171  A    between atoms: _424  and  _426
REMARK  172  A    between atoms: _426  and  _427
REMARK  173  A    between atoms: _426  and  _429
REMARK  174  A    between atoms: _429  and  _430
REMARK  175  A    between atoms: _433  and  _435
REMARK  176  A    between atoms: _435  and  _436
REMARK  177  A    between atoms: _435  and  _438
REMARK  178  A    between atoms: _438  and  _439
REMARK  179  A    between atoms: _442  and  _444
REMARK  180  A    between atoms: _444  and  _445
REMARK  181  A    between atoms: _444  and  _447
REMARK  182  A    between atoms: _447  and  _448
REMARK  183  A    between atoms: _448  and  _449
REMARK  184  A    between atoms: _451  and  _453
REMARK  185  A    between atoms: _453  and  _454
REMARK  186  A    between atoms: _453  and  _456
REMARK  187  A    between atoms: _456  and  _457
REMARK  188  A    between atoms: _463  and  _465
REMARK  189  A    between atoms: _465  and  _466
REMARK  190  A    between atoms: _470  and  _471
REMARK  191  A    between atoms: _476  and  _478
REMARK  192  A    between atoms: _478  and  _479
REMARK  193  A    between atoms: _478  and  _481
REMARK  194  A    between atoms: _481  and  _482
REMARK  195  A    between atoms: _485  and  _487
REMARK  196  A    between atoms: _487  and  _488
REMARK  197  A    between atoms: _487  and  _490
REMARK  198  A    between atoms: _490  and  _491
REMARK  199  A    between atoms: _501  and  _503
REMARK  200  A    between atoms: _503  and  _504
REMARK  201  A    between atoms: _503  and  _506
REMARK  202  A    between atoms: _508  and  _510
REMARK  203  A    between atoms: _510  and  _511
REMARK  204  A    between atoms: _510  and  _513
REMARK  205  A    between atoms: _513  and  _514
REMARK  206  A    between atoms: _514  and  _515
REMARK  207  A    between atoms: _518  and  _520
REMARK  208  A    between atoms: _520  and  _521
REMARK  209  A    between atoms: _520  and  _523
REMARK  210  A    between atoms: _523  and  _524
REMARK  211  A    between atoms: _527  and  _529
REMARK  212  A    between atoms: _529  and  _530
REMARK  213  A    between atoms: _529  and  _532
REMARK  214  A    between atoms: _532  and  _533
REMARK  215  A    between atoms: _538  and  _539
REMARK  216  A    between atoms: _541  and  _543
REMARK  217  A    between atoms: _543  and  _544
REMARK  218  A    between atoms: _546  and  _548
REMARK  219  A    between atoms: _548  and  _549
REMARK  220  A    between atoms: _552  and  _554
REMARK  221  A    between atoms: _554  and  _555
REMARK  222  A    between atoms: _554  and  _557
REMARK  223  A    between atoms: _559  and  _561
REMARK  224  A    between atoms: _561  and  _562
REMARK  225  A    between atoms: _561  and  _564
REMARK  226  A    between atoms: _564  and  _565
REMARK  227  A    between atoms: _570  and  _571
REMARK  228  A    between atoms: _573  and  _575
REMARK  229  A    between atoms: _575  and  _576
REMARK  230  A    between atoms: _575  and  _578
REMARK  231  A    between atoms: _578  and  _579
REMARK  232  A    between atoms: _584  and  _586
REMARK  233  A    between atoms: _586  and  _587
REMARK  234  A    between atoms: _586  and  _589
REMARK  235  A    between atoms: _589  and  _590
REMARK  236  A    between atoms: _596  and  _598
REMARK  237  A    between atoms: _598  and  _599
REMARK  238  A    between atoms: _602  and  _604
REMARK  239  A    between atoms: _604  and  _605
REMARK  240  A    between atoms: _607  and  _609
REMARK  241  A    between atoms: _609  and  _610
REMARK  242  A    between atoms: _609  and  _612
REMARK  243  A    between atoms: _612  and  _613
REMARK  244  A    between atoms: _618  and  _619
REMARK  245  A    between atoms: _621  and  _623
REMARK  246  A    between atoms: _623  and  _624
REMARK  247  A    between atoms: _623  and  _626
REMARK  248  A    between atoms: _626  and  _627
REMARK  249  A    between atoms: _629  and  _631
REMARK  250  A    between atoms: _631  and  _632
REMARK  251  A    between atoms: _634  and  _636
REMARK  252  A    between atoms: _636  and  _637
REMARK                            x       y       z     vdW  Elec       q    Type
REMARK                         _______ _______ _______ _____ _____    ______ ____
ROOT
ATOM      1  O   HOH     1      37.016  13.859 -20.215  0.00  0.00    +0.000 OA
ENDROOT
TORSDOF 0
REMARK  Name = ../refined-set-2016/3hkw/3hkw_pocket.pdb
REMARK  252 active torsions:
REMARK  status: ('A' for Active; 'I' for Inactive)
REMARK    1  A    between atoms: _1  and  _3
REMARK    2  A    between atoms: _3  and  _4
REMARK    3  A    between atoms: _3  and  _6
REMARK    4  A    between atoms: _6  and  _7
REMARK    5  A    between atoms: _7  and  _8
REMARK    6  A    between atoms: _8  and  _9
REMARK    7  A    between atoms: _9  and  _10
REMARK    8  A    between atoms: _14  and  _16
REMARK    9  A    between atoms: _16  and  _17
REMARK   10  A    between atoms: _16  and  _19
REMARK   11  A    between atoms: _19  and  _20
REMARK   12  A    between atoms: _20  and  _21
REMARK   13  A    between atoms: _24  and  _26
REMARK   14  A    between atoms: _26  and  _27
REMARK   15  A    between atoms: _26  and  _29
REMARK   16  A    between atoms: _29  and  _30
REMARK   17  A    between atoms: _30  and  _31
REMARK   18  A    between atoms: _31  and  _32
REMARK   19  A    between atoms: _41  and  _43
REMARK   20  A    between atoms: _43  and  _44
REMARK   21  A    between atoms: _46  and  _48
REMARK   22  A    between atoms: _48  and  _49
REMARK   23  A    between atoms: _48  and  _51
REMARK   24  A    between atoms: _51  and  _52
REMARK   25  A    between atoms: _58  and  _60
REMARK   26  A    between atoms: _60  and  _61
REMARK   27  A    between atoms: _60  and  _63
REMARK   28  A    between atoms: _63  and  _64
REMARK   29  A    between atoms: _69  and  _70
REMARK   30  A    between atoms: _72  and  _74
REMARK   31  A    between atoms: _74  and  _75
REMARK   32  A    between atoms: _74  and  _77
REMARK   33  A    between atoms: _77  and  _78
REMARK   34  A    between atoms: _81  and  _82
REMARK   35  A    between atoms: _87  and  _89
REMARK   36  A    between atoms: _89  and  _90
REMARK   37  A    between atoms: _92  and  _94
REMARK   38  A    between atoms: _94  and  _95
REMARK   39  A    between atoms: _94  and  _97
REMARK   40  A    between atoms: _97  and  _98
REMARK   41  A    between atoms: _98  and  _99
REMARK   42  A    between atoms: _104  and  _106
REMARK   43  A    between atoms: _106  and  _107
REMARK   44  A    between atoms: _106  and  _109
REMARK   45  A    between atoms: _109  and  _110
REMARK   46  A    between atoms: _110  and  _111
REMARK   47  A    between atoms: _111  and  _112
REMARK   48  A    between atoms: _121  and  _123
REMARK   49  A    between atoms: _123  and  _124
REMARK   50  A    between atoms: _123  and  _126
REMARK   51  A    between atoms: _129  and  _131
REMARK   52  A    between atoms: _131  and  _132
REMARK   53  A    between atoms: _131  and  _134
REMARK   54  A    between atoms: _134  and  _135
REMARK   55  A    between atoms: _138  and  _140
REMARK   56  A    between atoms: _140  and  _141
REMARK   57  A    between atoms: _140  and  _143
REMARK   58  A    between atoms: _143  and  _144
REMARK   59  A    between atoms: _147  and  _149
REMARK   60  A    between atoms: _149  and  _150
REMARK   61  A    between atoms: _149  and  _152
REMARK   62  A    between atoms: _152  and  _153
REMARK   63  A    between atoms: _155  and  _157
REMARK   64  A    between atoms: _157  and  _158
REMARK   65  A    between atoms: _157  and  _160
REMARK   66  A    between atoms: _160  and  _161
REMARK   67  A    between atoms: _164  and  _166
REMARK   68  A    between atoms: _166  and  _167
REMARK   69  A    between atoms: _166  and  _169
REMARK   70  A    between atoms: _169  and  _170
REMARK   71  A    between atoms: _172  and  _174
REMARK   72  A    between atoms: _174  and  _175
REMARK   73  A    between atoms: _174  and  _177
REMARK   74  A    between atoms: _177  and  _178
REMARK   75  A    between atoms: _183  and  _185
REMARK   76  A    between atoms: _185  and  _186
REMARK   77  A    between atoms: _185  and  _188
REMARK   78  A    between atoms: _188  and  _189
REMARK   79  A    between atoms: _192  and  _194
REMARK   80  A    between atoms: _194  and  _195
REMARK   81  A    between atoms: _194  and  _197
REMARK   82  A    between atoms: _199  and  _201
REMARK   83  A    between atoms: _201  and  _202
REMARK   84  A    between atoms: _204  and  _206
REMARK   85  A    between atoms: _206  and  _207
REMARK   86  A    between atoms: _206  and  _209
REMARK   87  A    between atoms: _209  and  _210
REMARK   88  A    between atoms: _213  and  _215
REMARK   89  A    between atoms: _215  and  _216
REMARK   90  A    between atoms: _215  and  _218
REMARK   91  A    between atoms: _218  and  _219
REMARK   92  A    between atoms: _222  and  _224
REMARK   93  A    between atoms: _224  and  _225
REMARK   94  A    between atoms: _224  and  _227
REMARK   95  A    between atoms: _227  and  _228
REMARK   96  A    between atoms: _230  and  _232
REMARK   97  A    between atoms: _232  and  _233
REMARK   98  A    between atoms: _232  and  _235
REMARK   99  A    between atoms: _237  and  _239
REMARK  100  A    between atoms: _239  and  _240
REMARK  101  A    between atoms: _239  and  _242
REMARK  102  A    between atoms: _242  and  _243
REMARK  103  A    between atoms: _245  and  _247
REMARK  104  A    between atoms: _247  and  _248
REMARK  105  A    between atoms: _247  and  _250
REMARK  106  A    between atoms: _250  and  _251
REMARK  107  A    between atoms: _253  and  _255
REMARK  108  A    between atoms: _255  and  _256
REMARK  109  A    between atoms: _255  and  _258
REMARK  110  A    between atoms: _258  and  _259
REMARK  111  A    between atoms: _264  and  _266
REMARK  112  A    between atoms: _266  and  _267
REMARK  113  A    between atoms: _266  and  _269
REMARK  114  A    between atoms: _269  and  _270
REMARK  115  A    between atoms: _275  and  _276
REMARK  116  A    between atoms: _278  and  _280
REMARK  117  A    between atoms: _280  and  _281
REMARK  118  A    between atoms: _280  and  _283
REMARK  119  A    between atoms: _283  and  _284
REMARK  120  A    between atoms: _287  and  _289
REMARK  121  A    between atoms: _289  and  _290
REMARK  122  A    between atoms: _289  and  _292
REMARK  123  A    between atoms: _292  and  _293
REMARK  124  A    between atoms: _296  and  _298
REMARK  125  A    between atoms: _298  and  _299
REMARK  126  A    between atoms: _298  and  _301
REMARK  127  A    between atoms: _301  and  _302
REMARK  128  A    between atoms: _302  and  _303
REMARK  129  A    between atoms: _303  and  _304
REMARK  130  A    between atoms: _313  and  _315
REMARK  131  A    between atoms: _315  and  _316
REMARK  132  A    between atoms: _315  and  _318
REMARK  133  A    between atoms: _318  and  _319
REMARK  134  A    between atoms: _323  and  _324
REMARK  135  A    between atoms: _329  and  _331
REMARK  136  A    between atoms: _331  and  _332
REMARK  137  A    between atoms: _331  and  _334
REMARK  138  A    between atoms: _334  and  _335
REMARK  139  A    between atoms: _335  and  _336
REMARK  140  A    between atoms: _336  and  _337
REMARK  141  A    between atoms: _346  and  _348
REMARK  142  A    between atoms: _348  and  _349
REMARK  143  A    between atoms: _348  and  _351
REMARK  144  A    between atoms: _351  and  _352
REMARK  145  A    between atoms: _352  and  _353
REMARK  146  A    between atoms: _356  and  _358
REMARK  147  A    between atoms: _358  and  _359
REMARK  148  A    between atoms: _358  and  _361
REMARK  149  A    between atoms: _364  and  _366
REMARK  150  A    between atoms: _366  and  _367
REMARK  151  A    between atoms: _366  and  _369
REMARK  152  A    between atoms: _369  and  _370
REMARK  153  A    between atoms: _375  and  _377
REMARK  154  A    between atoms: _377  and  _378
REMARK  155  A    between atoms: _377  and  _380
REMARK  156  A    between atoms: _380  and  _381
REMARK  157  A    between atoms: _383  and  _385
REMARK  158  A    between atoms: _385  and  _386
REMARK  159  A    between atoms: _385  and  _388
REMARK  160  A    between atoms: _388  and  _389
REMARK  161  A    between atoms: _399  and  _401
REMARK  162  A    between atoms: _401  and  _402
REMARK  163  A    between atoms: _401  and  _404
REMARK  164  A    between atoms: _404  and  _405
REMARK  165  A    between atoms: _408  and  _410
REMARK  166  A    between atoms: _410  and  _411
REMARK  167  A    between atoms: _413  and  _415
REMARK  168  A    between atoms: _415  and  _416
REMARK  169  A    between atoms: _415  and  _418
REMARK  170  A    between atoms: _418  and  _419
REMARK  171  A    between atoms: _424  and  _426
REMARK  172  A    between atoms: _426  and  _427
REMARK  173  A    between atoms: _426  and  _429
REMARK  174  A    between atoms: _429  and  _430
REMARK  175  A    between atoms: _433  and  _435
REMARK  176  A    between atoms: _435  and  _436
REMARK  177  A    between atoms: _435  and  _438
REMARK  178  A    between atoms: _438  and  _439
REMARK  179  A    between atoms: _442  and  _444
REMARK  180  A    between atoms: _444  and  _445
REMARK  181  A    between atoms: _444  and  _447
REMARK  182  A    between atoms: _447  and  _448
REMARK  183  A    between atoms: _448  and  _449
REMARK  184  A    between atoms: _451  and  _453
REMARK  185  A    between atoms: _453  and  _454
REMARK  186  A    between atoms: _453  and  _456
REMARK  187  A    between atoms: _456  and  _457
REMARK  188  A    between atoms: _463  and  _465
REMARK  189  A    between atoms: _465  and  _466
REMARK  190  A    between atoms: _470  and  _471
REMARK  191  A    between atoms: _476  and  _478
REMARK  192  A    between atoms: _478  and  _479
REMARK  193  A    between atoms: _478  and  _481
REMARK  194  A    between atoms: _481  and  _482
REMARK  195  A    between atoms: _485  and  _487
REMARK  196  A    between atoms: _487  and  _488
REMARK  197  A    between atoms: _487  and  _490
REMARK  198  A    between atoms: _490  and  _491
REMARK  199  A    between atoms: _501  and  _503
REMARK  200  A    between atoms: _503  and  _504
REMARK  201  A    between atoms: _503  and  _506
REMARK  202  A    between atoms: _508  and  _510
REMARK  203  A    between atoms: _510  and  _511
REMARK  204  A    between atoms: _510  and  _513
REMARK  205  A    between atoms: _513  and  _514
REMARK  206  A    between atoms: _514  and  _515
REMARK  207  A    between atoms: _518  and  _520
REMARK  208  A    between atoms: _520  and  _521
REMARK  209  A    between atoms: _520  and  _523
REMARK  210  A    between atoms: _523  and  _524
REMARK  211  A    between atoms: _527  and  _529
REMARK  212  A    between atoms: _529  and  _530
REMARK  213  A    between atoms: _529  and  _532
REMARK  214  A    between atoms: _532  and  _533
REMARK  215  A    between atoms: _538  and  _539
REMARK  216  A    between atoms: _541  and  _543
REMARK  217  A    between atoms: _543  and  _544
REMARK  218  A    between atoms: _546  and  _548
REMARK  219  A    between atoms: _548  and  _549
REMARK  220  A    between atoms: _552  and  _554
REMARK  221  A    between atoms: _554  and  _555
REMARK  222  A    between atoms: _554  and  _557
REMARK  223  A    between atoms: _559  and  _561
REMARK  224  A    between atoms: _561  and  _562
REMARK  225  A    between atoms: _561  and  _564
REMARK  226  A    between atoms: _564  and  _565
REMARK  227  A    between atoms: _570  and  _571
REMARK  228  A    between atoms: _573  and  _575
REMARK  229  A    between atoms: _575  and  _576
REMARK  230  A    between atoms: _575  and  _578
REMARK  231  A    between atoms: _578  and  _579
REMARK  232  A    between atoms: _584  and  _586
REMARK  233  A    between atoms: _586  and  _587
REMARK  234  A    between atoms: _586  and  _589
REMARK  235  A    between atoms: _589  and  _590
REMARK  236  A    between atoms: _596  and  _598
REMARK  237  A    between atoms: _598  and  _599
REMARK  238  A    between atoms: _602  and  _604
REMARK  239  A    between atoms: _604  and  _605
REMARK  240  A    between atoms: _607  and  _609
REMARK  241  A    between atoms: _609  and  _610
REMARK  242  A    between atoms: _609  and  _612
REMARK  243  A    between atoms: _612  and  _613
REMARK  244  A    between atoms: _618  and  _619
REMARK  245  A    between atoms: _621  and  _623
REMARK  246  A    between atoms: _623  and  _624
REMARK  247  A    between atoms: _623  and  _626
REMARK  248  A    between atoms: _626  and  _627
REMARK  249  A    between atoms: _629  and  _631
REMARK  250  A    between atoms: _631  and  _632
REMARK  251  A    between atoms: _634  and  _636
REMARK  252  A    between atoms: _636  and  _637
REMARK                            x       y       z     vdW  Elec       q    Type
REMARK                         _______ _______ _______ _____ _____    ______ ____
ROOT
ATOM      1  O   HOH     1      38.464   4.435 -14.157  0.00  0.00    +0.000 OA
ENDROOT
TORSDOF 0
REMARK  Name = ../refined-set-2016/3hkw/3hkw_pocket.pdb
REMARK  252 active torsions:
REMARK  status: ('A' for Active; 'I' for Inactive)
REMARK    1  A    between atoms: _1  and  _3
REMARK    2  A    between atoms: _3  and  _4
REMARK    3  A    between atoms: _3  and  _6
REMARK    4  A    between atoms: _6  and  _7
REMARK    5  A    between atoms: _7  and  _8
REMARK    6  A    between atoms: _8  and  _9
REMARK    7  A    between atoms: _9  and  _10
REMARK    8  A    between atoms: _14  and  _16
REMARK    9  A    between atoms: _16  and  _17
REMARK   10  A    between atoms: _16  and  _19
REMARK   11  A    between atoms: _19  and  _20
REMARK   12  A    between atoms: _20  and  _21
REMARK   13  A    between atoms: _24  and  _26
REMARK   14  A    between atoms: _26  and  _27
REMARK   15  A    between atoms: _26  and  _29
REMARK   16  A    between atoms: _29  and  _30
REMARK   17  A    between atoms: _30  and  _31
REMARK   18  A    between atoms: _31  and  _32
REMARK   19  A    between atoms: _41  and  _43
REMARK   20  A    between atoms: _43  and  _44
REMARK   21  A    between atoms: _46  and  _48
REMARK   22  A    between atoms: _48  and  _49
REMARK   23  A    between atoms: _48  and  _51
REMARK   24  A    between atoms: _51  and  _52
REMARK   25  A    between atoms: _58  and  _60
REMARK   26  A    between atoms: _60  and  _61
REMARK   27  A    between atoms: _60  and  _63
REMARK   28  A    between atoms: _63  and  _64
REMARK   29  A    between atoms: _69  and  _70
REMARK   30  A    between atoms: _72  and  _74
REMARK   31  A    between atoms: _74  and  _75
REMARK   32  A    between atoms: _74  and  _77
REMARK   33  A    between atoms: _77  and  _78
REMARK   34  A    between atoms: _81  and  _82
REMARK   35  A    between atoms: _87  and  _89
REMARK   36  A    between atoms: _89  and  _90
REMARK   37  A    between atoms: _92  and  _94
REMARK   38  A    between atoms: _94  and  _95
REMARK   39  A    between atoms: _94  and  _97
REMARK   40  A    between atoms: _97  and  _98
REMARK   41  A    between atoms: _98  and  _99
REMARK   42  A    between atoms: _104  and  _106
REMARK   43  A    between atoms: _106  and  _107
REMARK   44  A    between atoms: _106  and  _109
REMARK   45  A    between atoms: _109  and  _110
REMARK   46  A    between atoms: _110  and  _111
REMARK   47  A    between atoms: _111  and  _112
REMARK   48  A    between atoms: _121  and  _123
REMARK   49  A    between atoms: _123  and  _124
REMARK   50  A    between atoms: _123  and  _126
REMARK   51  A    between atoms: _129  and  _131
REMARK   52  A    between atoms: _131  and  _132
REMARK   53  A    between atoms: _131  and  _134
REMARK   54  A    between atoms: _134  and  _135
REMARK   55  A    between atoms: _138  and  _140
REMARK   56  A    between atoms: _140  and  _141
REMARK   57  A    between atoms: _140  and  _143
REMARK   58  A    between atoms: _143  and  _144
REMARK   59  A    between atoms: _147  and  _149
REMARK   60  A    between atoms: _149  and  _150
REMARK   61  A    between atoms: _149  and  _152
REMARK   62  A    between atoms: _152  and  _153
REMARK   63  A    between atoms: _155  and  _157
REMARK   64  A    between atoms: _157  and  _158
REMARK   65  A    between atoms: _157  and  _160
REMARK   66  A    between atoms: _160  and  _161
REMARK   67  A    between atoms: _164  and  _166
REMARK   68  A    between atoms: _166  and  _167
REMARK   69  A    between atoms: _166  and  _169
REMARK   70  A    between atoms: _169  and  _170
REMARK   71  A    between atoms: _172  and  _174
REMARK   72  A    between atoms: _174  and  _175
REMARK   73  A    between atoms: _174  and  _177
REMARK   74  A    between atoms: _177  and  _178
REMARK   75  A    between atoms: _183  and  _185
REMARK   76  A    between atoms: _185  and  _186
REMARK   77  A    between atoms: _185  and  _188
REMARK   78  A    between atoms: _188  and  _189
REMARK   79  A    between atoms: _192  and  _194
REMARK   80  A    between atoms: _194  and  _195
REMARK   81  A    between atoms: _194  and  _197
REMARK   82  A    between atoms: _199  and  _201
REMARK   83  A    between atoms: _201  and  _202
REMARK   84  A    between atoms: _204  and  _206
REMARK   85  A    between atoms: _206  and  _207
REMARK   86  A    between atoms: _206  and  _209
REMARK   87  A    between atoms: _209  and  _210
REMARK   88  A    between atoms: _213  and  _215
REMARK   89  A    between atoms: _215  and  _216
REMARK   90  A    between atoms: _215  and  _218
REMARK   91  A    between atoms: _218  and  _219
REMARK   92  A    between atoms: _222  and  _224
REMARK   93  A    between atoms: _224  and  _225
REMARK   94  A    between atoms: _224  and  _227
REMARK   95  A    between atoms: _227  and  _228
REMARK   96  A    between atoms: _230  and  _232
REMARK   97  A    between atoms: _232  and  _233
REMARK   98  A    between atoms: _232  and  _235
REMARK   99  A    between atoms: _237  and  _239
REMARK  100  A    between atoms: _239  and  _240
REMARK  101  A    between atoms: _239  and  _242
REMARK  102  A    between atoms: _242  and  _243
REMARK  103  A    between atoms: _245  and  _247
REMARK  104  A    between atoms: _247  and  _248
REMARK  105  A    between atoms: _247  and  _250
REMARK  106  A    between atoms: _250  and  _251
REMARK  107  A    between atoms: _253  and  _255
REMARK  108  A    between atoms: _255  and  _256
REMARK  109  A    between atoms: _255  and  _258
REMARK  110  A    between atoms: _258  and  _259
REMARK  111  A    between atoms: _264  and  _266
REMARK  112  A    between atoms: _266  and  _267
REMARK  113  A    between atoms: _266  and  _269
REMARK  114  A    between atoms: _269  and  _270
REMARK  115  A    between atoms: _275  and  _276
REMARK  116  A    between atoms: _278  and  _280
REMARK  117  A    between atoms: _280  and  _281
REMARK  118  A    between atoms: _280  and  _283
REMARK  119  A    between atoms: _283  and  _284
REMARK  120  A    between atoms: _287  and  _289
REMARK  121  A    between atoms: _289  and  _290
REMARK  122  A    between atoms: _289  and  _292
REMARK  123  A    between atoms: _292  and  _293
REMARK  124  A    between atoms: _296  and  _298
REMARK  125  A    between atoms: _298  and  _299
REMARK  126  A    between atoms: _298  and  _301
REMARK  127  A    between atoms: _301  and  _302
REMARK  128  A    between atoms: _302  and  _303
REMARK  129  A    between atoms: _303  and  _304
REMARK  130  A    between atoms: _313  and  _315
REMARK  131  A    between atoms: _315  and  _316
REMARK  132  A    between atoms: _315  and  _318
REMARK  133  A    between atoms: _318  and  _319
REMARK  134  A    between atoms: _323  and  _324
REMARK  135  A    between atoms: _329  and  _331
REMARK  136  A    between atoms: _331  and  _332
REMARK  137  A    between atoms: _331  and  _334
REMARK  138  A    between atoms: _334  and  _335
REMARK  139  A    between atoms: _335  and  _336
REMARK  140  A    between atoms: _336  and  _337
REMARK  141  A    between atoms: _346  and  _348
REMARK  142  A    between atoms: _348  and  _349
REMARK  143  A    between atoms: _348  and  _351
REMARK  144  A    between atoms: _351  and  _352
REMARK  145  A    between atoms: _352  and  _353
REMARK  146  A    between atoms: _356  and  _358
REMARK  147  A    between atoms: _358  and  _359
REMARK  148  A    between atoms: _358  and  _361
REMARK  149  A    between atoms: _364  and  _366
REMARK  150  A    between atoms: _366  and  _367
REMARK  151  A    between atoms: _366  and  _369
REMARK  152  A    between atoms: _369  and  _370
REMARK  153  A    between atoms: _375  and  _377
REMARK  154  A    between atoms: _377  and  _378
REMARK  155  A    between atoms: _377  and  _380
REMARK  156  A    between atoms: _380  and  _381
REMARK  157  A    between atoms: _383  and  _385
REMARK  158  A    between atoms: _385  and  _386
REMARK  159  A    between atoms: _385  and  _388
REMARK  160  A    between atoms: _388  and  _389
REMARK  161  A    between atoms: _399  and  _401
REMARK  162  A    between atoms: _401  and  _402
REMARK  163  A    between atoms: _401  and  _404
REMARK  164  A    between atoms: _404  and  _405
REMARK  165  A    between atoms: _408  and  _410
REMARK  166  A    between atoms: _410  and  _411
REMARK  167  A    between atoms: _413  and  _415
REMARK  168  A    between atoms: _415  and  _416
REMARK  169  A    between atoms: _415  and  _418
REMARK  170  A    between atoms: _418  and  _419
REMARK  171  A    between atoms: _424  and  _426
REMARK  172  A    between atoms: _426  and  _427
REMARK  173  A    between atoms: _426  and  _429
REMARK  174  A    between atoms: _429  and  _430
REMARK  175  A    between atoms: _433  and  _435
REMARK  176  A    between atoms: _435  and  _436
REMARK  177  A    between atoms: _435  and  _438
REMARK  178  A    between atoms: _438  and  _439
REMARK  179  A    between atoms: _442  and  _444
REMARK  180  A    between atoms: _444  and  _445
REMARK  181  A    between atoms: _444  and  _447
REMARK  182  A    between atoms: _447  and  _448
REMARK  183  A    between atoms: _448  and  _449
REMARK  184  A    between atoms: _451  and  _453
REMARK  185  A    between atoms: _453  and  _454
REMARK  186  A    between atoms: _453  and  _456
REMARK  187  A    between atoms: _456  and  _457
REMARK  188  A    between atoms: _463  and  _465
REMARK  189  A    between atoms: _465  and  _466
REMARK  190  A    between atoms: _470  and  _471
REMARK  191  A    between atoms: _476  and  _478
REMARK  192  A    between atoms: _478  and  _479
REMARK  193  A    between atoms: _478  and  _481
REMARK  194  A    between atoms: _481  and  _482
REMARK  195  A    between atoms: _485  and  _487
REMARK  196  A    between atoms: _487  and  _488
REMARK  197  A    between atoms: _487  and  _490
REMARK  198  A    between atoms: _490  and  _491
REMARK  199  A    between atoms: _501  and  _503
REMARK  200  A    between atoms: _503  and  _504
REMARK  201  A    between atoms: _503  and  _506
REMARK  202  A    between atoms: _508  and  _510
REMARK  203  A    between atoms: _510  and  _511
REMARK  204  A    between atoms: _510  and  _513
REMARK  205  A    between atoms: _513  and  _514
REMARK  206  A    between atoms: _514  and  _515
REMARK  207  A    between atoms: _518  and  _520
REMARK  208  A    between atoms: _520  and  _521
REMARK  209  A    between atoms: _520  and  _523
REMARK  210  A    between atoms: _523  and  _524
REMARK  211  A    between atoms: _527  and  _529
REMARK  212  A    between atoms: _529  and  _530
REMARK  213  A    between atoms: _529  and  _532
REMARK  214  A    between atoms: _532  and  _533
REMARK  215  A    between atoms: _538  and  _539
REMARK  216  A    between atoms: _541  and  _543
REMARK  217  A    between atoms: _543  and  _544
REMARK  218  A    between atoms: _546  and  _548
REMARK  219  A    between atoms: _548  and  _549
REMARK  220  A    between atoms: _552  and  _554
REMARK  221  A    between atoms: _554  and  _555
REMARK  222  A    between atoms: _554  and  _557
REMARK  223  A    between atoms: _559  and  _561
REMARK  224  A    between atoms: _561  and  _562
REMARK  225  A    between atoms: _561  and  _564
REMARK  226  A    between atoms: _564  and  _565
REMARK  227  A    between atoms: _570  and  _571
REMARK  228  A    between atoms: _573  and  _575
REMARK  229  A    between atoms: _575  and  _576
REMARK  230  A    between atoms: _575  and  _578
REMARK  231  A    between atoms: _578  and  _579
REMARK  232  A    between atoms: _584  and  _586
REMARK  233  A    between atoms: _586  and  _587
REMARK  234  A    between atoms: _586  and  _589
REMARK  235  A    between atoms: _589  and  _590
REMARK  236  A    between atoms: _596  and  _598
REMARK  237  A    between atoms: _598  and  _599
REMARK  238  A    between atoms: _602  and  _604
REMARK  239  A    between atoms: _604  and  _605
REMARK  240  A    between atoms: _607  and  _609
REMARK  241  A    between atoms: _609  and  _610
REMARK  242  A    between atoms: _609  and  _612
REMARK  243  A    between atoms: _612  and  _613
REMARK  244  A    between atoms: _618  and  _619
REMARK  245  A    between atoms: _621  and  _623
REMARK  246  A    between atoms: _623  and  _624
REMARK  247  A    between atoms: _623  and  _626
REMARK  248  A    between atoms: _626  and  _627
REMARK  249  A    between atoms: _629  and  _631
REMARK  250  A    between atoms: _631  and  _632
REMARK  251  A    between atoms: _634  and  _636
REMARK  252  A    between atoms: _636  and  _637
REMARK                            x       y       z     vdW  Elec       q    Type
REMARK                         _______ _______ _______ _____ _____    ______ ____
ROOT
ATOM      1  O   HOH     1      38.947   0.052 -22.560  0.00  0.00    +0.000 OA
ENDROOT
TORSDOF 0
REMARK  Name = ../refined-set-2016/3hkw/3hkw_pocket.pdb
REMARK  252 active torsions:
REMARK  status: ('A' for Active; 'I' for Inactive)
REMARK    1  A    between atoms: _1  and  _3
REMARK    2  A    between atoms: _3  and  _4
REMARK    3  A    between atoms: _3  and  _6
REMARK    4  A    between atoms: _6  and  _7
REMARK    5  A    between atoms: _7  and  _8
REMARK    6  A    between atoms: _8  and  _9
REMARK    7  A    between atoms: _9  and  _10
REMARK    8  A    between atoms: _14  and  _16
REMARK    9  A    between atoms: _16  and  _17
REMARK   10  A    between atoms: _16  and  _19
REMARK   11  A    between atoms: _19  and  _20
REMARK   12  A    between atoms: _20  and  _21
REMARK   13  A    between atoms: _24  and  _26
REMARK   14  A    between atoms: _26  and  _27
REMARK   15  A    between atoms: _26  and  _29
REMARK   16  A    between atoms: _29  and  _30
REMARK   17  A    between atoms: _30  and  _31
REMARK   18  A    between atoms: _31  and  _32
REMARK   19  A    between atoms: _41  and  _43
REMARK   20  A    between atoms: _43  and  _44
REMARK   21  A    between atoms: _46  and  _48
REMARK   22  A    between atoms: _48  and  _49
REMARK   23  A    between atoms: _48  and  _51
REMARK   24  A    between atoms: _51  and  _52
REMARK   25  A    between atoms: _58  and  _60
REMARK   26  A    between atoms: _60  and  _61
REMARK   27  A    between atoms: _60  and  _63
REMARK   28  A    between atoms: _63  and  _64
REMARK   29  A    between atoms: _69  and  _70
REMARK   30  A    between atoms: _72  and  _74
REMARK   31  A    between atoms: _74  and  _75
REMARK   32  A    between atoms: _74  and  _77
REMARK   33  A    between atoms: _77  and  _78
REMARK   34  A    between atoms: _81  and  _82
REMARK   35  A    between atoms: _87  and  _89
REMARK   36  A    between atoms: _89  and  _90
REMARK   37  A    between atoms: _92  and  _94
REMARK   38  A    between atoms: _94  and  _95
REMARK   39  A    between atoms: _94  and  _97
REMARK   40  A    between atoms: _97  and  _98
REMARK   41  A    between atoms: _98  and  _99
REMARK   42  A    between atoms: _104  and  _106
REMARK   43  A    between atoms: _106  and  _107
REMARK   44  A    between atoms: _106  and  _109
REMARK   45  A    between atoms: _109  and  _110
REMARK   46  A    between atoms: _110  and  _111
REMARK   47  A    between atoms: _111  and  _112
REMARK   48  A    between atoms: _121  and  _123
REMARK   49  A    between atoms: _123  and  _124
REMARK   50  A    between atoms: _123  and  _126
REMARK   51  A    between atoms: _129  and  _131
REMARK   52  A    between atoms: _131  and  _132
REMARK   53  A    between atoms: _131  and  _134
REMARK   54  A    between atoms: _134  and  _135
REMARK   55  A    between atoms: _138  and  _140
REMARK   56  A    between atoms: _140  and  _141
REMARK   57  A    between atoms: _140  and  _143
REMARK   58  A    between atoms: _143  and  _144
REMARK   59  A    between atoms: _147  and  _149
REMARK   60  A    between atoms: _149  and  _150
REMARK   61  A    between atoms: _149  and  _152
REMARK   62  A    between atoms: _152  and  _153
REMARK   63  A    between atoms: _155  and  _157
REMARK   64  A    between atoms: _157  and  _158
REMARK   65  A    between atoms: _157  and  _160
REMARK   66  A    between atoms: _160  and  _161
REMARK   67  A    between atoms: _164  and  _166
REMARK   68  A    between atoms: _166  and  _167
REMARK   69  A    between atoms: _166  and  _169
REMARK   70  A    between atoms: _169  and  _170
REMARK   71  A    between atoms: _172  and  _174
REMARK   72  A    between atoms: _174  and  _175
REMARK   73  A    between atoms: _174  and  _177
REMARK   74  A    between atoms: _177  and  _178
REMARK   75  A    between atoms: _183  and  _185
REMARK   76  A    between atoms: _185  and  _186
REMARK   77  A    between atoms: _185  and  _188
REMARK   78  A    between atoms: _188  and  _189
REMARK   79  A    between atoms: _192  and  _194
REMARK   80  A    between atoms: _194  and  _195
REMARK   81  A    between atoms: _194  and  _197
REMARK   82  A    between atoms: _199  and  _201
REMARK   83  A    between atoms: _201  and  _202
REMARK   84  A    between atoms: _204  and  _206
REMARK   85  A    between atoms: _206  and  _207
REMARK   86  A    between atoms: _206  and  _209
REMARK   87  A    between atoms: _209  and  _210
REMARK   88  A    between atoms: _213  and  _215
REMARK   89  A    between atoms: _215  and  _216
REMARK   90  A    between atoms: _215  and  _218
REMARK   91  A    between atoms: _218  and  _219
REMARK   92  A    between atoms: _222  and  _224
REMARK   93  A    between atoms: _224  and  _225
REMARK   94  A    between atoms: _224  and  _227
REMARK   95  A    between atoms: _227  and  _228
REMARK   96  A    between atoms: _230  and  _232
REMARK   97  A    between atoms: _232  and  _233
REMARK   98  A    between atoms: _232  and  _235
REMARK   99  A    between atoms: _237  and  _239
REMARK  100  A    between atoms: _239  and  _240
REMARK  101  A    between atoms: _239  and  _242
REMARK  102  A    between atoms: _242  and  _243
REMARK  103  A    between atoms: _245  and  _247
REMARK  104  A    between atoms: _247  and  _248
REMARK  105  A    between atoms: _247  and  _250
REMARK  106  A    between atoms: _250  and  _251
REMARK  107  A    between atoms: _253  and  _255
REMARK  108  A    between atoms: _255  and  _256
REMARK  109  A    between atoms: _255  and  _258
REMARK  110  A    between atoms: _258  and  _259
REMARK  111  A    between atoms: _264  and  _266
REMARK  112  A    between atoms: _266  and  _267
REMARK  113  A    between atoms: _266  and  _269
REMARK  114  A    between atoms: _269  and  _270
REMARK  115  A    between atoms: _275  and  _276
REMARK  116  A    between atoms: _278  and  _280
REMARK  117  A    between atoms: _280  and  _281
REMARK  118  A    between atoms: _280  and  _283
REMARK  119  A    between atoms: _283  and  _284
REMARK  120  A    between atoms: _287  and  _289
REMARK  121  A    between atoms: _289  and  _290
REMARK  122  A    between atoms: _289  and  _292
REMARK  123  A    between atoms: _292  and  _293
REMARK  124  A    between atoms: _296  and  _298
REMARK  125  A    between atoms: _298  and  _299
REMARK  126  A    between atoms: _298  and  _301
REMARK  127  A    between atoms: _301  and  _302
REMARK  128  A    between atoms: _302  and  _303
REMARK  129  A    between atoms: _303  and  _304
REMARK  130  A    between atoms: _313  and  _315
REMARK  131  A    between atoms: _315  and  _316
REMARK  132  A    between atoms: _315  and  _318
REMARK  133  A    between atoms: _318  and  _319
REMARK  134  A    between atoms: _323  and  _324
REMARK  135  A    between atoms: _329  and  _331
REMARK  136  A    between atoms: _331  and  _332
REMARK  137  A    between atoms: _331  and  _334
REMARK  138  A    between atoms: _334  and  _335
REMARK  139  A    between atoms: _335  and  _336
REMARK  140  A    between atoms: _336  and  _337
REMARK  141  A    between atoms: _346  and  _348
REMARK  142  A    between atoms: _348  and  _349
REMARK  143  A    between atoms: _348  and  _351
REMARK  144  A    between atoms: _351  and  _352
REMARK  145  A    between atoms: _352  and  _353
REMARK  146  A    between atoms: _356  and  _358
REMARK  147  A    between atoms: _358  and  _359
REMARK  148  A    between atoms: _358  and  _361
REMARK  149  A    between atoms: _364  and  _366
REMARK  150  A    between atoms: _366  and  _367
REMARK  151  A    between atoms: _366  and  _369
REMARK  152  A    between atoms: _369  and  _370
REMARK  153  A    between atoms: _375  and  _377
REMARK  154  A    between atoms: _377  and  _378
REMARK  155  A    between atoms: _377  and  _380
REMARK  156  A    between atoms: _380  and  _381
REMARK  157  A    between atoms: _383  and  _385
REMARK  158  A    between atoms: _385  and  _386
REMARK  159  A    between atoms: _385  and  _388
REMARK  160  A    between atoms: _388  and  _389
REMARK  161  A    between atoms: _399  and  _401
REMARK  162  A    between atoms: _401  and  _402
REMARK  163  A    between atoms: _401  and  _404
REMARK  164  A    between atoms: _404  and  _405
REMARK  165  A    between atoms: _408  and  _410
REMARK  166  A    between atoms: _410  and  _411
REMARK  167  A    between atoms: _413  and  _415
REMARK  168  A    between atoms: _415  and  _416
REMARK  169  A    between atoms: _415  and  _418
REMARK  170  A    between atoms: _418  and  _419
REMARK  171  A    between atoms: _424  and  _426
REMARK  172  A    between atoms: _426  and  _427
REMARK  173  A    between atoms: _426  and  _429
REMARK  174  A    between atoms: _429  and  _430
REMARK  175  A    between atoms: _433  and  _435
REMARK  176  A    between atoms: _435  and  _436
REMARK  177  A    between atoms: _435  and  _438
REMARK  178  A    between atoms: _438  and  _439
REMARK  179  A    between atoms: _442  and  _444
REMARK  180  A    between atoms: _444  and  _445
REMARK  181  A    between atoms: _444  and  _447
REMARK  182  A    between atoms: _447  and  _448
REMARK  183  A    between atoms: _448  and  _449
REMARK  184  A    between atoms: _451  and  _453
REMARK  185  A    between atoms: _453  and  _454
REMARK  186  A    between atoms: _453  and  _456
REMARK  187  A    between atoms: _456  and  _457
REMARK  188  A    between atoms: _463  and  _465
REMARK  189  A    between atoms: _465  and  _466
REMARK  190  A    between atoms: _470  and  _471
REMARK  191  A    between atoms: _476  and  _478
REMARK  192  A    between atoms: _478  and  _479
REMARK  193  A    between atoms: _478  and  _481
REMARK  194  A    between atoms: _481  and  _482
REMARK  195  A    between atoms: _485  and  _487
REMARK  196  A    between atoms: _487  and  _488
REMARK  197  A    between atoms: _487  and  _490
REMARK  198  A    between atoms: _490  and  _491
REMARK  199  A    between atoms: _501  and  _503
REMARK  200  A    between atoms: _503  and  _504
REMARK  201  A    between atoms: _503  and  _506
REMARK  202  A    between atoms: _508  and  _510
REMARK  203  A    between atoms: _510  and  _511
REMARK  204  A    between atoms: _510  and  _513
REMARK  205  A    between atoms: _513  and  _514
REMARK  206  A    between atoms: _514  and  _515
REMARK  207  A    between atoms: _518  and  _520
REMARK  208  A    between atoms: _520  and  _521
REMARK  209  A    between atoms: _520  and  _523
REMARK  210  A    between atoms: _523  and  _524
REMARK  211  A    between atoms: _527  and  _529
REMARK  212  A    between atoms: _529  and  _530
REMARK  213  A    between atoms: _529  and  _532
REMARK  214  A    between atoms: _532  and  _533
REMARK  215  A    between atoms: _538  and  _539
REMARK  216  A    between atoms: _541  and  _543
REMARK  217  A    between atoms: _543  and  _544
REMARK  218  A    between atoms: _546  and  _548
REMARK  219  A    between atoms: _548  and  _549
REMARK  220  A    between atoms: _552  and  _554
REMARK  221  A    between atoms: _554  and  _555
REMARK  222  A    between atoms: _554  and  _557
REMARK  223  A    between atoms: _559  and  _561
REMARK  224  A    between atoms: _561  and  _562
REMARK  225  A    between atoms: _561  and  _564
REMARK  226  A    between atoms: _564  and  _565
REMARK  227  A    between atoms: _570  and  _571
REMARK  228  A    between atoms: _573  and  _575
REMARK  229  A    between atoms: _575  and  _576
REMARK  230  A    between atoms: _575  and  _578
REMARK  231  A    between atoms: _578  and  _579
REMARK  232  A    between atoms: _584  and  _586
REMARK  233  A    between atoms: _586  and  _587
REMARK  234  A    between atoms: _586  and  _589
REMARK  235  A    between atoms: _589  and  _590
REMARK  236  A    between atoms: _596  and  _598
REMARK  237  A    between atoms: _598  and  _599
REMARK  238  A    between atoms: _602  and  _604
REMARK  239  A    between atoms: _604  and  _605
REMARK  240  A    between atoms: _607  and  _609
REMARK  241  A    between atoms: _609  and  _610
REMARK  242  A    between atoms: _609  and  _612
REMARK  243  A    between atoms: _612  and  _613
REMARK  244  A    between atoms: _618  and  _619
REMARK  245  A    between atoms: _621  and  _623
REMARK  246  A    between atoms: _623  and  _624
REMARK  247  A    between atoms: _623  and  _626
REMARK  248  A    between atoms: _626  and  _627
REMARK  249  A    between atoms: _629  and  _631
REMARK  250  A    between atoms: _631  and  _632
REMARK  251  A    between atoms: _634  and  _636
REMARK  252  A    between atoms: _636  and  _637
REMARK                            x       y       z     vdW  Elec       q    Type
REMARK                         _______ _______ _______ _____ _____    ______ ____
ROOT
ATOM      1  O   HOH     1      37.846  -3.039 -23.837  0.00  0.00    +0.000 OA
ENDROOT
TORSDOF 0
REMARK  Name = ../refined-set-2016/3hkw/3hkw_pocket.pdb
REMARK  252 active torsions:
REMARK  status: ('A' for Active; 'I' for Inactive)
REMARK    1  A    between atoms: _1  and  _3
REMARK    2  A    between atoms: _3  and  _4
REMARK    3  A    between atoms: _3  and  _6
REMARK    4  A    between atoms: _6  and  _7
REMARK    5  A    between atoms: _7  and  _8
REMARK    6  A    between atoms: _8  and  _9
REMARK    7  A    between atoms: _9  and  _10
REMARK    8  A    between atoms: _14  and  _16
REMARK    9  A    between atoms: _16  and  _17
REMARK   10  A    between atoms: _16  and  _19
REMARK   11  A    between atoms: _19  and  _20
REMARK   12  A    between atoms: _20  and  _21
REMARK   13  A    between atoms: _24  and  _26
REMARK   14  A    between atoms: _26  and  _27
REMARK   15  A    between atoms: _26  and  _29
REMARK   16  A    between atoms: _29  and  _30
REMARK   17  A    between atoms: _30  and  _31
REMARK   18  A    between atoms: _31  and  _32
REMARK   19  A    between atoms: _41  and  _43
REMARK   20  A    between atoms: _43  and  _44
REMARK   21  A    between atoms: _46  and  _48
REMARK   22  A    between atoms: _48  and  _49
REMARK   23  A    between atoms: _48  and  _51
REMARK   24  A    between atoms: _51  and  _52
REMARK   25  A    between atoms: _58  and  _60
REMARK   26  A    between atoms: _60  and  _61
REMARK   27  A    between atoms: _60  and  _63
REMARK   28  A    between atoms: _63  and  _64
REMARK   29  A    between atoms: _69  and  _70
REMARK   30  A    between atoms: _72  and  _74
REMARK   31  A    between atoms: _74  and  _75
REMARK   32  A    between atoms: _74  and  _77
REMARK   33  A    between atoms: _77  and  _78
REMARK   34  A    between atoms: _81  and  _82
REMARK   35  A    between atoms: _87  and  _89
REMARK   36  A    between atoms: _89  and  _90
REMARK   37  A    between atoms: _92  and  _94
REMARK   38  A    between atoms: _94  and  _95
REMARK   39  A    between atoms: _94  and  _97
REMARK   40  A    between atoms: _97  and  _98
REMARK   41  A    between atoms: _98  and  _99
REMARK   42  A    between atoms: _104  and  _106
REMARK   43  A    between atoms: _106  and  _107
REMARK   44  A    between atoms: _106  and  _109
REMARK   45  A    between atoms: _109  and  _110
REMARK   46  A    between atoms: _110  and  _111
REMARK   47  A    between atoms: _111  and  _112
REMARK   48  A    between atoms: _121  and  _123
REMARK   49  A    between atoms: _123  and  _124
REMARK   50  A    between atoms: _123  and  _126
REMARK   51  A    between atoms: _129  and  _131
REMARK   52  A    between atoms: _131  and  _132
REMARK   53  A    between atoms: _131  and  _134
REMARK   54  A    between atoms: _134  and  _135
REMARK   55  A    between atoms: _138  and  _140
REMARK   56  A    between atoms: _140  and  _141
REMARK   57  A    between atoms: _140  and  _143
REMARK   58  A    between atoms: _143  and  _144
REMARK   59  A    between atoms: _147  and  _149
REMARK   60  A    between atoms: _149  and  _150
REMARK   61  A    between atoms: _149  and  _152
REMARK   62  A    between atoms: _152  and  _153
REMARK   63  A    between atoms: _155  and  _157
REMARK   64  A    between atoms: _157  and  _158
REMARK   65  A    between atoms: _157  and  _160
REMARK   66  A    between atoms: _160  and  _161
REMARK   67  A    between atoms: _164  and  _166
REMARK   68  A    between atoms: _166  and  _167
REMARK   69  A    between atoms: _166  and  _169
REMARK   70  A    between atoms: _169  and  _170
REMARK   71  A    between atoms: _172  and  _174
REMARK   72  A    between atoms: _174  and  _175
REMARK   73  A    between atoms: _174  and  _177
REMARK   74  A    between atoms: _177  and  _178
REMARK   75  A    between atoms: _183  and  _185
REMARK   76  A    between atoms: _185  and  _186
REMARK   77  A    between atoms: _185  and  _188
REMARK   78  A    between atoms: _188  and  _189
REMARK   79  A    between atoms: _192  and  _194
REMARK   80  A    between atoms: _194  and  _195
REMARK   81  A    between atoms: _194  and  _197
REMARK   82  A    between atoms: _199  and  _201
REMARK   83  A    between atoms: _201  and  _202
REMARK   84  A    between atoms: _204  and  _206
REMARK   85  A    between atoms: _206  and  _207
REMARK   86  A    between atoms: _206  and  _209
REMARK   87  A    between atoms: _209  and  _210
REMARK   88  A    between atoms: _213  and  _215
REMARK   89  A    between atoms: _215  and  _216
REMARK   90  A    between atoms: _215  and  _218
REMARK   91  A    between atoms: _218  and  _219
REMARK   92  A    between atoms: _222  and  _224
REMARK   93  A    between atoms: _224  and  _225
REMARK   94  A    between atoms: _224  and  _227
REMARK   95  A    between atoms: _227  and  _228
REMARK   96  A    between atoms: _230  and  _232
REMARK   97  A    between atoms: _232  and  _233
REMARK   98  A    between atoms: _232  and  _235
REMARK   99  A    between atoms: _237  and  _239
REMARK  100  A    between atoms: _239  and  _240
REMARK  101  A    between atoms: _239  and  _242
REMARK  102  A    between atoms: _242  and  _243
REMARK  103  A    between atoms: _245  and  _247
REMARK  104  A    between atoms: _247  and  _248
REMARK  105  A    between atoms: _247  and  _250
REMARK  106  A    between atoms: _250  and  _251
REMARK  107  A    between atoms: _253  and  _255
REMARK  108  A    between atoms: _255  and  _256
REMARK  109  A    between atoms: _255  and  _258
REMARK  110  A    between atoms: _258  and  _259
REMARK  111  A    between atoms: _264  and  _266
REMARK  112  A    between atoms: _266  and  _267
REMARK  113  A    between atoms: _266  and  _269
REMARK  114  A    between atoms: _269  and  _270
REMARK  115  A    between atoms: _275  and  _276
REMARK  116  A    between atoms: _278  and  _280
REMARK  117  A    between atoms: _280  and  _281
REMARK  118  A    between atoms: _280  and  _283
REMARK  119  A    between atoms: _283  and  _284
REMARK  120  A    between atoms: _287  and  _289
REMARK  121  A    between atoms: _289  and  _290
REMARK  122  A    between atoms: _289  and  _292
REMARK  123  A    between atoms: _292  and  _293
REMARK  124  A    between atoms: _296  and  _298
REMARK  125  A    between atoms: _298  and  _299
REMARK  126  A    between atoms: _298  and  _301
REMARK  127  A    between atoms: _301  and  _302
REMARK  128  A    between atoms: _302  and  _303
REMARK  129  A    between atoms: _303  and  _304
REMARK  130  A    between atoms: _313  and  _315
REMARK  131  A    between atoms: _315  and  _316
REMARK  132  A    between atoms: _315  and  _318
REMARK  133  A    between atoms: _318  and  _319
REMARK  134  A    between atoms: _323  and  _324
REMARK  135  A    between atoms: _329  and  _331
REMARK  136  A    between atoms: _331  and  _332
REMARK  137  A    between atoms: _331  and  _334
REMARK  138  A    between atoms: _334  and  _335
REMARK  139  A    between atoms: _335  and  _336
REMARK  140  A    between atoms: _336  and  _337
REMARK  141  A    between atoms: _346  and  _348
REMARK  142  A    between atoms: _348  and  _349
REMARK  143  A    between atoms: _348  and  _351
REMARK  144  A    between atoms: _351  and  _352
REMARK  145  A    between atoms: _352  and  _353
REMARK  146  A    between atoms: _356  and  _358
REMARK  147  A    between atoms: _358  and  _359
REMARK  148  A    between atoms: _358  and  _361
REMARK  149  A    between atoms: _364  and  _366
REMARK  150  A    between atoms: _366  and  _367
REMARK  151  A    between atoms: _366  and  _369
REMARK  152  A    between atoms: _369  and  _370
REMARK  153  A    between atoms: _375  and  _377
REMARK  154  A    between atoms: _377  and  _378
REMARK  155  A    between atoms: _377  and  _380
REMARK  156  A    between atoms: _380  and  _381
REMARK  157  A    between atoms: _383  and  _385
REMARK  158  A    between atoms: _385  and  _386
REMARK  159  A    between atoms: _385  and  _388
REMARK  160  A    between atoms: _388  and  _389
REMARK  161  A    between atoms: _399  and  _401
REMARK  162  A    between atoms: _401  and  _402
REMARK  163  A    between atoms: _401  and  _404
REMARK  164  A    between atoms: _404  and  _405
REMARK  165  A    between atoms: _408  and  _410
REMARK  166  A    between atoms: _410  and  _411
REMARK  167  A    between atoms: _413  and  _415
REMARK  168  A    between atoms: _415  and  _416
REMARK  169  A    between atoms: _415  and  _418
REMARK  170  A    between atoms: _418  and  _419
REMARK  171  A    between atoms: _424  and  _426
REMARK  172  A    between atoms: _426  and  _427
REMARK  173  A    between atoms: _426  and  _429
REMARK  174  A    between atoms: _429  and  _430
REMARK  175  A    between atoms: _433  and  _435
REMARK  176  A    between atoms: _435  and  _436
REMARK  177  A    between atoms: _435  and  _438
REMARK  178  A    between atoms: _438  and  _439
REMARK  179  A    between atoms: _442  and  _444
REMARK  180  A    between atoms: _444  and  _445
REMARK  181  A    between atoms: _444  and  _447
REMARK  182  A    between atoms: _447  and  _448
REMARK  183  A    between atoms: _448  and  _449
REMARK  184  A    between atoms: _451  and  _453
REMARK  185  A    between atoms: _453  and  _454
REMARK  186  A    between atoms: _453  and  _456
REMARK  187  A    between atoms: _456  and  _457
REMARK  188  A    between atoms: _463  and  _465
REMARK  189  A    between atoms: _465  and  _466
REMARK  190  A    between atoms: _470  and  _471
REMARK  191  A    between atoms: _476  and  _478
REMARK  192  A    between atoms: _478  and  _479
REMARK  193  A    between atoms: _478  and  _481
REMARK  194  A    between atoms: _481  and  _482
REMARK  195  A    between atoms: _485  and  _487
REMARK  196  A    between atoms: _487  and  _488
REMARK  197  A    between atoms: _487  and  _490
REMARK  198  A    between atoms: _490  and  _491
REMARK  199  A    between atoms: _501  and  _503
REMARK  200  A    between atoms: _503  and  _504
REMARK  201  A    between atoms: _503  and  _506
REMARK  202  A    between atoms: _508  and  _510
REMARK  203  A    between atoms: _510  and  _511
REMARK  204  A    between atoms: _510  and  _513
REMARK  205  A    between atoms: _513  and  _514
REMARK  206  A    between atoms: _514  and  _515
REMARK  207  A    between atoms: _518  and  _520
REMARK  208  A    between atoms: _520  and  _521
REMARK  209  A    between atoms: _520  and  _523
REMARK  210  A    between atoms: _523  and  _524
REMARK  211  A    between atoms: _527  and  _529
REMARK  212  A    between atoms: _529  and  _530
REMARK  213  A    between atoms: _529  and  _532
REMARK  214  A    between atoms: _532  and  _533
REMARK  215  A    between atoms: _538  and  _539
REMARK  216  A    between atoms: _541  and  _543
REMARK  217  A    between atoms: _543  and  _544
REMARK  218  A    between atoms: _546  and  _548
REMARK  219  A    between atoms: _548  and  _549
REMARK  220  A    between atoms: _552  and  _554
REMARK  221  A    between atoms: _554  and  _555
REMARK  222  A    between atoms: _554  and  _557
REMARK  223  A    between atoms: _559  and  _561
REMARK  224  A    between atoms: _561  and  _562
REMARK  225  A    between atoms: _561  and  _564
REMARK  226  A    between atoms: _564  and  _565
REMARK  227  A    between atoms: _570  and  _571
REMARK  228  A    between atoms: _573  and  _575
REMARK  229  A    between atoms: _575  and  _576
REMARK  230  A    between atoms: _575  and  _578
REMARK  231  A    between atoms: _578  and  _579
REMARK  232  A    between atoms: _584  and  _586
REMARK  233  A    between atoms: _586  and  _587
REMARK  234  A    between atoms: _586  and  _589
REMARK  235  A    between atoms: _589  and  _590
REMARK  236  A    between atoms: _596  and  _598
REMARK  237  A    between atoms: _598  and  _599
REMARK  238  A    between atoms: _602  and  _604
REMARK  239  A    between atoms: _604  and  _605
REMARK  240  A    between atoms: _607  and  _609
REMARK  241  A    between atoms: _609  and  _610
REMARK  242  A    between atoms: _609  and  _612
REMARK  243  A    between atoms: _612  and  _613
REMARK  244  A    between atoms: _618  and  _619
REMARK  245  A    between atoms: _621  and  _623
REMARK  246  A    between atoms: _623  and  _624
REMARK  247  A    between atoms: _623  and  _626
REMARK  248  A    between atoms: _626  and  _627
REMARK  249  A    between atoms: _629  and  _631
REMARK  250  A    between atoms: _631  and  _632
REMARK  251  A    between atoms: _634  and  _636
REMARK  252  A    between atoms: _636  and  _637
REMARK                            x       y       z     vdW  Elec       q    Type
REMARK                         _______ _______ _______ _____ _____    ______ ____
ROOT
ATOM      1  O   HOH     1      35.712  11.495 -19.508  0.00  0.00    +0.000 OA
ENDROOT
TORSDOF 0
REMARK  Name = ../refined-set-2016/3hkw/3hkw_pocket.pdb
REMARK  252 active torsions:
REMARK  status: ('A' for Active; 'I' for Inactive)
REMARK    1  A    between atoms: _1  and  _3
REMARK    2  A    between atoms: _3  and  _4
REMARK    3  A    between atoms: _3  and  _6
REMARK    4  A    between atoms: _6  and  _7
REMARK    5  A    between atoms: _7  and  _8
REMARK    6  A    between atoms: _8  and  _9
REMARK    7  A    between atoms: _9  and  _10
REMARK    8  A    between atoms: _14  and  _16
REMARK    9  A    between atoms: _16  and  _17
REMARK   10  A    between atoms: _16  and  _19
REMARK   11  A    between atoms: _19  and  _20
REMARK   12  A    between atoms: _20  and  _21
REMARK   13  A    between atoms: _24  and  _26
REMARK   14  A    between atoms: _26  and  _27
REMARK   15  A    between atoms: _26  and  _29
REMARK   16  A    between atoms: _29  and  _30
REMARK   17  A    between atoms: _30  and  _31
REMARK   18  A    between atoms: _31  and  _32
REMARK   19  A    between atoms: _41  and  _43
REMARK   20  A    between atoms: _43  and  _44
REMARK   21  A    between atoms: _46  and  _48
REMARK   22  A    between atoms: _48  and  _49
REMARK   23  A    between atoms: _48  and  _51
REMARK   24  A    between atoms: _51  and  _52
REMARK   25  A    between atoms: _58  and  _60
REMARK   26  A    between atoms: _60  and  _61
REMARK   27  A    between atoms: _60  and  _63
REMARK   28  A    between atoms: _63  and  _64
REMARK   29  A    between atoms: _69  and  _70
REMARK   30  A    between atoms: _72  and  _74
REMARK   31  A    between atoms: _74  and  _75
REMARK   32  A    between atoms: _74  and  _77
REMARK   33  A    between atoms: _77  and  _78
REMARK   34  A    between atoms: _81  and  _82
REMARK   35  A    between atoms: _87  and  _89
REMARK   36  A    between atoms: _89  and  _90
REMARK   37  A    between atoms: _92  and  _94
REMARK   38  A    between atoms: _94  and  _95
REMARK   39  A    between atoms: _94  and  _97
REMARK   40  A    between atoms: _97  and  _98
REMARK   41  A    between atoms: _98  and  _99
REMARK   42  A    between atoms: _104  and  _106
REMARK   43  A    between atoms: _106  and  _107
REMARK   44  A    between atoms: _106  and  _109
REMARK   45  A    between atoms: _109  and  _110
REMARK   46  A    between atoms: _110  and  _111
REMARK   47  A    between atoms: _111  and  _112
REMARK   48  A    between atoms: _121  and  _123
REMARK   49  A    between atoms: _123  and  _124
REMARK   50  A    between atoms: _123  and  _126
REMARK   51  A    between atoms: _129  and  _131
REMARK   52  A    between atoms: _131  and  _132
REMARK   53  A    between atoms: _131  and  _134
REMARK   54  A    between atoms: _134  and  _135
REMARK   55  A    between atoms: _138  and  _140
REMARK   56  A    between atoms: _140  and  _141
REMARK   57  A    between atoms: _140  and  _143
REMARK   58  A    between atoms: _143  and  _144
REMARK   59  A    between atoms: _147  and  _149
REMARK   60  A    between atoms: _149  and  _150
REMARK   61  A    between atoms: _149  and  _152
REMARK   62  A    between atoms: _152  and  _153
REMARK   63  A    between atoms: _155  and  _157
REMARK   64  A    between atoms: _157  and  _158
REMARK   65  A    between atoms: _157  and  _160
REMARK   66  A    between atoms: _160  and  _161
REMARK   67  A    between atoms: _164  and  _166
REMARK   68  A    between atoms: _166  and  _167
REMARK   69  A    between atoms: _166  and  _169
REMARK   70  A    between atoms: _169  and  _170
REMARK   71  A    between atoms: _172  and  _174
REMARK   72  A    between atoms: _174  and  _175
REMARK   73  A    between atoms: _174  and  _177
REMARK   74  A    between atoms: _177  and  _178
REMARK   75  A    between atoms: _183  and  _185
REMARK   76  A    between atoms: _185  and  _186
REMARK   77  A    between atoms: _185  and  _188
REMARK   78  A    between atoms: _188  and  _189
REMARK   79  A    between atoms: _192  and  _194
REMARK   80  A    between atoms: _194  and  _195
REMARK   81  A    between atoms: _194  and  _197
REMARK   82  A    between atoms: _199  and  _201
REMARK   83  A    between atoms: _201  and  _202
REMARK   84  A    between atoms: _204  and  _206
REMARK   85  A    between atoms: _206  and  _207
REMARK   86  A    between atoms: _206  and  _209
REMARK   87  A    between atoms: _209  and  _210
REMARK   88  A    between atoms: _213  and  _215
REMARK   89  A    between atoms: _215  and  _216
REMARK   90  A    between atoms: _215  and  _218
REMARK   91  A    between atoms: _218  and  _219
REMARK   92  A    between atoms: _222  and  _224
REMARK   93  A    between atoms: _224  and  _225
REMARK   94  A    between atoms: _224  and  _227
REMARK   95  A    between atoms: _227  and  _228
REMARK   96  A    between atoms: _230  and  _232
REMARK   97  A    between atoms: _232  and  _233
REMARK   98  A    between atoms: _232  and  _235
REMARK   99  A    between atoms: _237  and  _239
REMARK  100  A    between atoms: _239  and  _240
REMARK  101  A    between atoms: _239  and  _242
REMARK  102  A    between atoms: _242  and  _243
REMARK  103  A    between atoms: _245  and  _247
REMARK  104  A    between atoms: _247  and  _248
REMARK  105  A    between atoms: _247  and  _250
REMARK  106  A    between atoms: _250  and  _251
REMARK  107  A    between atoms: _253  and  _255
REMARK  108  A    between atoms: _255  and  _256
REMARK  109  A    between atoms: _255  and  _258
REMARK  110  A    between atoms: _258  and  _259
REMARK  111  A    between atoms: _264  and  _266
REMARK  112  A    between atoms: _266  and  _267
REMARK  113  A    between atoms: _266  and  _269
REMARK  114  A    between atoms: _269  and  _270
REMARK  115  A    between atoms: _275  and  _276
REMARK  116  A    between atoms: _278  and  _280
REMARK  117  A    between atoms: _280  and  _281
REMARK  118  A    between atoms: _280  and  _283
REMARK  119  A    between atoms: _283  and  _284
REMARK  120  A    between atoms: _287  and  _289
REMARK  121  A    between atoms: _289  and  _290
REMARK  122  A    between atoms: _289  and  _292
REMARK  123  A    between atoms: _292  and  _293
REMARK  124  A    between atoms: _296  and  _298
REMARK  125  A    between atoms: _298  and  _299
REMARK  126  A    between atoms: _298  and  _301
REMARK  127  A    between atoms: _301  and  _302
REMARK  128  A    between atoms: _302  and  _303
REMARK  129  A    between atoms: _303  and  _304
REMARK  130  A    between atoms: _313  and  _315
REMARK  131  A    between atoms: _315  and  _316
REMARK  132  A    between atoms: _315  and  _318
REMARK  133  A    between atoms: _318  and  _319
REMARK  134  A    between atoms: _323  and  _324
REMARK  135  A    between atoms: _329  and  _331
REMARK  136  A    between atoms: _331  and  _332
REMARK  137  A    between atoms: _331  and  _334
REMARK  138  A    between atoms: _334  and  _335
REMARK  139  A    between atoms: _335  and  _336
REMARK  140  A    between atoms: _336  and  _337
REMARK  141  A    between atoms: _346  and  _348
REMARK  142  A    between atoms: _348  and  _349
REMARK  143  A    between atoms: _348  and  _351
REMARK  144  A    between atoms: _351  and  _352
REMARK  145  A    between atoms: _352  and  _353
REMARK  146  A    between atoms: _356  and  _358
REMARK  147  A    between atoms: _358  and  _359
REMARK  148  A    between atoms: _358  and  _361
REMARK  149  A    between atoms: _364  and  _366
REMARK  150  A    between atoms: _366  and  _367
REMARK  151  A    between atoms: _366  and  _369
REMARK  152  A    between atoms: _369  and  _370
REMARK  153  A    between atoms: _375  and  _377
REMARK  154  A    between atoms: _377  and  _378
REMARK  155  A    between atoms: _377  and  _380
REMARK  156  A    between atoms: _380  and  _381
REMARK  157  A    between atoms: _383  and  _385
REMARK  158  A    between atoms: _385  and  _386
REMARK  159  A    between atoms: _385  and  _388
REMARK  160  A    between atoms: _388  and  _389
REMARK  161  A    between atoms: _399  and  _401
REMARK  162  A    between atoms: _401  and  _402
REMARK  163  A    between atoms: _401  and  _404
REMARK  164  A    between atoms: _404  and  _405
REMARK  165  A    between atoms: _408  and  _410
REMARK  166  A    between atoms: _410  and  _411
REMARK  167  A    between atoms: _413  and  _415
REMARK  168  A    between atoms: _415  and  _416
REMARK  169  A    between atoms: _415  and  _418
REMARK  170  A    between atoms: _418  and  _419
REMARK  171  A    between atoms: _424  and  _426
REMARK  172  A    between atoms: _426  and  _427
REMARK  173  A    between atoms: _426  and  _429
REMARK  174  A    between atoms: _429  and  _430
REMARK  175  A    between atoms: _433  and  _435
REMARK  176  A    between atoms: _435  and  _436
REMARK  177  A    between atoms: _435  and  _438
REMARK  178  A    between atoms: _438  and  _439
REMARK  179  A    between atoms: _442  and  _444
REMARK  180  A    between atoms: _444  and  _445
REMARK  181  A    between atoms: _444  and  _447
REMARK  182  A    between atoms: _447  and  _448
REMARK  183  A    between atoms: _448  and  _449
REMARK  184  A    between atoms: _451  and  _453
REMARK  185  A    between atoms: _453  and  _454
REMARK  186  A    between atoms: _453  and  _456
REMARK  187  A    between atoms: _456  and  _457
REMARK  188  A    between atoms: _463  and  _465
REMARK  189  A    between atoms: _465  and  _466
REMARK  190  A    between atoms: _470  and  _471
REMARK  191  A    between atoms: _476  and  _478
REMARK  192  A    between atoms: _478  and  _479
REMARK  193  A    between atoms: _478  and  _481
REMARK  194  A    between atoms: _481  and  _482
REMARK  195  A    between atoms: _485  and  _487
REMARK  196  A    between atoms: _487  and  _488
REMARK  197  A    between atoms: _487  and  _490
REMARK  198  A    between atoms: _490  and  _491
REMARK  199  A    between atoms: _501  and  _503
REMARK  200  A    between atoms: _503  and  _504
REMARK  201  A    between atoms: _503  and  _506
REMARK  202  A    between atoms: _508  and  _510
REMARK  203  A    between atoms: _510  and  _511
REMARK  204  A    between atoms: _510  and  _513
REMARK  205  A    between atoms: _513  and  _514
REMARK  206  A    between atoms: _514  and  _515
REMARK  207  A    between atoms: _518  and  _520
REMARK  208  A    between atoms: _520  and  _521
REMARK  209  A    between atoms: _520  and  _523
REMARK  210  A    between atoms: _523  and  _524
REMARK  211  A    between atoms: _527  and  _529
REMARK  212  A    between atoms: _529  and  _530
REMARK  213  A    between atoms: _529  and  _532
REMARK  214  A    between atoms: _532  and  _533
REMARK  215  A    between atoms: _538  and  _539
REMARK  216  A    between atoms: _541  and  _543
REMARK  217  A    between atoms: _543  and  _544
REMARK  218  A    between atoms: _546  and  _548
REMARK  219  A    between atoms: _548  and  _549
REMARK  220  A    between atoms: _552  and  _554
REMARK  221  A    between atoms: _554  and  _555
REMARK  222  A    between atoms: _554  and  _557
REMARK  223  A    between atoms: _559  and  _561
REMARK  224  A    between atoms: _561  and  _562
REMARK  225  A    between atoms: _561  and  _564
REMARK  226  A    between atoms: _564  and  _565
REMARK  227  A    between atoms: _570  and  _571
REMARK  228  A    between atoms: _573  and  _575
REMARK  229  A    between atoms: _575  and  _576
REMARK  230  A    between atoms: _575  and  _578
REMARK  231  A    between atoms: _578  and  _579
REMARK  232  A    between atoms: _584  and  _586
REMARK  233  A    between atoms: _586  and  _587
REMARK  234  A    between atoms: _586  and  _589
REMARK  235  A    between atoms: _589  and  _590
REMARK  236  A    between atoms: _596  and  _598
REMARK  237  A    between atoms: _598  and  _599
REMARK  238  A    between atoms: _602  and  _604
REMARK  239  A    between atoms: _604  and  _605
REMARK  240  A    between atoms: _607  and  _609
REMARK  241  A    between atoms: _609  and  _610
REMARK  242  A    between atoms: _609  and  _612
REMARK  243  A    between atoms: _612  and  _613
REMARK  244  A    between atoms: _618  and  _619
REMARK  245  A    between atoms: _621  and  _623
REMARK  246  A    between atoms: _623  and  _624
REMARK  247  A    between atoms: _623  and  _626
REMARK  248  A    between atoms: _626  and  _627
REMARK  249  A    between atoms: _629  and  _631
REMARK  250  A    between atoms: _631  and  _632
REMARK  251  A    between atoms: _634  and  _636
REMARK  252  A    between atoms: _636  and  _637
REMARK                            x       y       z     vdW  Elec       q    Type
REMARK                         _______ _______ _______ _____ _____    ______ ____
ROOT
ATOM      1  O   HOH     1      44.274   1.998 -24.580  0.00  0.00    +0.000 OA
ENDROOT
TORSDOF 0
REMARK  Name = ../refined-set-2016/3hkw/3hkw_pocket.pdb
REMARK  252 active torsions:
REMARK  status: ('A' for Active; 'I' for Inactive)
REMARK    1  A    between atoms: _1  and  _3
REMARK    2  A    between atoms: _3  and  _4
REMARK    3  A    between atoms: _3  and  _6
REMARK    4  A    between atoms: _6  and  _7
REMARK    5  A    between atoms: _7  and  _8
REMARK    6  A    between atoms: _8  and  _9
REMARK    7  A    between atoms: _9  and  _10
REMARK    8  A    between atoms: _14  and  _16
REMARK    9  A    between atoms: _16  and  _17
REMARK   10  A    between atoms: _16  and  _19
REMARK   11  A    between atoms: _19  and  _20
REMARK   12  A    between atoms: _20  and  _21
REMARK   13  A    between atoms: _24  and  _26
REMARK   14  A    between atoms: _26  and  _27
REMARK   15  A    between atoms: _26  and  _29
REMARK   16  A    between atoms: _29  and  _30
REMARK   17  A    between atoms: _30  and  _31
REMARK   18  A    between atoms: _31  and  _32
REMARK   19  A    between atoms: _41  and  _43
REMARK   20  A    between atoms: _43  and  _44
REMARK   21  A    between atoms: _46  and  _48
REMARK   22  A    between atoms: _48  and  _49
REMARK   23  A    between atoms: _48  and  _51
REMARK   24  A    between atoms: _51  and  _52
REMARK   25  A    between atoms: _58  and  _60
REMARK   26  A    between atoms: _60  and  _61
REMARK   27  A    between atoms: _60  and  _63
REMARK   28  A    between atoms: _63  and  _64
REMARK   29  A    between atoms: _69  and  _70
REMARK   30  A    between atoms: _72  and  _74
REMARK   31  A    between atoms: _74  and  _75
REMARK   32  A    between atoms: _74  and  _77
REMARK   33  A    between atoms: _77  and  _78
REMARK   34  A    between atoms: _81  and  _82
REMARK   35  A    between atoms: _87  and  _89
REMARK   36  A    between atoms: _89  and  _90
REMARK   37  A    between atoms: _92  and  _94
REMARK   38  A    between atoms: _94  and  _95
REMARK   39  A    between atoms: _94  and  _97
REMARK   40  A    between atoms: _97  and  _98
REMARK   41  A    between atoms: _98  and  _99
REMARK   42  A    between atoms: _104  and  _106
REMARK   43  A    between atoms: _106  and  _107
REMARK   44  A    between atoms: _106  and  _109
REMARK   45  A    between atoms: _109  and  _110
REMARK   46  A    between atoms: _110  and  _111
REMARK   47  A    between atoms: _111  and  _112
REMARK   48  A    between atoms: _121  and  _123
REMARK   49  A    between atoms: _123  and  _124
REMARK   50  A    between atoms: _123  and  _126
REMARK   51  A    between atoms: _129  and  _131
REMARK   52  A    between atoms: _131  and  _132
REMARK   53  A    between atoms: _131  and  _134
REMARK   54  A    between atoms: _134  and  _135
REMARK   55  A    between atoms: _138  and  _140
REMARK   56  A    between atoms: _140  and  _141
REMARK   57  A    between atoms: _140  and  _143
REMARK   58  A    between atoms: _143  and  _144
REMARK   59  A    between atoms: _147  and  _149
REMARK   60  A    between atoms: _149  and  _150
REMARK   61  A    between atoms: _149  and  _152
REMARK   62  A    between atoms: _152  and  _153
REMARK   63  A    between atoms: _155  and  _157
REMARK   64  A    between atoms: _157  and  _158
REMARK   65  A    between atoms: _157  and  _160
REMARK   66  A    between atoms: _160  and  _161
REMARK   67  A    between atoms: _164  and  _166
REMARK   68  A    between atoms: _166  and  _167
REMARK   69  A    between atoms: _166  and  _169
REMARK   70  A    between atoms: _169  and  _170
REMARK   71  A    between atoms: _172  and  _174
REMARK   72  A    between atoms: _174  and  _175
REMARK   73  A    between atoms: _174  and  _177
REMARK   74  A    between atoms: _177  and  _178
REMARK   75  A    between atoms: _183  and  _185
REMARK   76  A    between atoms: _185  and  _186
REMARK   77  A    between atoms: _185  and  _188
REMARK   78  A    between atoms: _188  and  _189
REMARK   79  A    between atoms: _192  and  _194
REMARK   80  A    between atoms: _194  and  _195
REMARK   81  A    between atoms: _194  and  _197
REMARK   82  A    between atoms: _199  and  _201
REMARK   83  A    between atoms: _201  and  _202
REMARK   84  A    between atoms: _204  and  _206
REMARK   85  A    between atoms: _206  and  _207
REMARK   86  A    between atoms: _206  and  _209
REMARK   87  A    between atoms: _209  and  _210
REMARK   88  A    between atoms: _213  and  _215
REMARK   89  A    between atoms: _215  and  _216
REMARK   90  A    between atoms: _215  and  _218
REMARK   91  A    between atoms: _218  and  _219
REMARK   92  A    between atoms: _222  and  _224
REMARK   93  A    between atoms: _224  and  _225
REMARK   94  A    between atoms: _224  and  _227
REMARK   95  A    between atoms: _227  and  _228
REMARK   96  A    between atoms: _230  and  _232
REMARK   97  A    between atoms: _232  and  _233
REMARK   98  A    between atoms: _232  and  _235
REMARK   99  A    between atoms: _237  and  _239
REMARK  100  A    between atoms: _239  and  _240
REMARK  101  A    between atoms: _239  and  _242
REMARK  102  A    between atoms: _242  and  _243
REMARK  103  A    between atoms: _245  and  _247
REMARK  104  A    between atoms: _247  and  _248
REMARK  105  A    between atoms: _247  and  _250
REMARK  106  A    between atoms: _250  and  _251
REMARK  107  A    between atoms: _253  and  _255
REMARK  108  A    between atoms: _255  and  _256
REMARK  109  A    between atoms: _255  and  _258
REMARK  110  A    between atoms: _258  and  _259
REMARK  111  A    between atoms: _264  and  _266
REMARK  112  A    between atoms: _266  and  _267
REMARK  113  A    between atoms: _266  and  _269
REMARK  114  A    between atoms: _269  and  _270
REMARK  115  A    between atoms: _275  and  _276
REMARK  116  A    between atoms: _278  and  _280
REMARK  117  A    between atoms: _280  and  _281
REMARK  118  A    between atoms: _280  and  _283
REMARK  119  A    between atoms: _283  and  _284
REMARK  120  A    between atoms: _287  and  _289
REMARK  121  A    between atoms: _289  and  _290
REMARK  122  A    between atoms: _289  and  _292
REMARK  123  A    between atoms: _292  and  _293
REMARK  124  A    between atoms: _296  and  _298
REMARK  125  A    between atoms: _298  and  _299
REMARK  126  A    between atoms: _298  and  _301
REMARK  127  A    between atoms: _301  and  _302
REMARK  128  A    between atoms: _302  and  _303
REMARK  129  A    between atoms: _303  and  _304
REMARK  130  A    between atoms: _313  and  _315
REMARK  131  A    between atoms: _315  and  _316
REMARK  132  A    between atoms: _315  and  _318
REMARK  133  A    between atoms: _318  and  _319
REMARK  134  A    between atoms: _323  and  _324
REMARK  135  A    between atoms: _329  and  _331
REMARK  136  A    between atoms: _331  and  _332
REMARK  137  A    between atoms: _331  and  _334
REMARK  138  A    between atoms: _334  and  _335
REMARK  139  A    between atoms: _335  and  _336
REMARK  140  A    between atoms: _336  and  _337
REMARK  141  A    between atoms: _346  and  _348
REMARK  142  A    between atoms: _348  and  _349
REMARK  143  A    between atoms: _348  and  _351
REMARK  144  A    between atoms: _351  and  _352
REMARK  145  A    between atoms: _352  and  _353
REMARK  146  A    between atoms: _356  and  _358
REMARK  147  A    between atoms: _358  and  _359
REMARK  148  A    between atoms: _358  and  _361
REMARK  149  A    between atoms: _364  and  _366
REMARK  150  A    between atoms: _366  and  _367
REMARK  151  A    between atoms: _366  and  _369
REMARK  152  A    between atoms: _369  and  _370
REMARK  153  A    between atoms: _375  and  _377
REMARK  154  A    between atoms: _377  and  _378
REMARK  155  A    between atoms: _377  and  _380
REMARK  156  A    between atoms: _380  and  _381
REMARK  157  A    between atoms: _383  and  _385
REMARK  158  A    between atoms: _385  and  _386
REMARK  159  A    between atoms: _385  and  _388
REMARK  160  A    between atoms: _388  and  _389
REMARK  161  A    between atoms: _399  and  _401
REMARK  162  A    between atoms: _401  and  _402
REMARK  163  A    between atoms: _401  and  _404
REMARK  164  A    between atoms: _404  and  _405
REMARK  165  A    between atoms: _408  and  _410
REMARK  166  A    between atoms: _410  and  _411
REMARK  167  A    between atoms: _413  and  _415
REMARK  168  A    between atoms: _415  and  _416
REMARK  169  A    between atoms: _415  and  _418
REMARK  170  A    between atoms: _418  and  _419
REMARK  171  A    between atoms: _424  and  _426
REMARK  172  A    between atoms: _426  and  _427
REMARK  173  A    between atoms: _426  and  _429
REMARK  174  A    between atoms: _429  and  _430
REMARK  175  A    between atoms: _433  and  _435
REMARK  176  A    between atoms: _435  and  _436
REMARK  177  A    between atoms: _435  and  _438
REMARK  178  A    between atoms: _438  and  _439
REMARK  179  A    between atoms: _442  and  _444
REMARK  180  A    between atoms: _444  and  _445
REMARK  181  A    between atoms: _444  and  _447
REMARK  182  A    between atoms: _447  and  _448
REMARK  183  A    between atoms: _448  and  _449
REMARK  184  A    between atoms: _451  and  _453
REMARK  185  A    between atoms: _453  and  _454
REMARK  186  A    between atoms: _453  and  _456
REMARK  187  A    between atoms: _456  and  _457
REMARK  188  A    between atoms: _463  and  _465
REMARK  189  A    between atoms: _465  and  _466
REMARK  190  A    between atoms: _470  and  _471
REMARK  191  A    between atoms: _476  and  _478
REMARK  192  A    between atoms: _478  and  _479
REMARK  193  A    between atoms: _478  and  _481
REMARK  194  A    between atoms: _481  and  _482
REMARK  195  A    between atoms: _485  and  _487
REMARK  196  A    between atoms: _487  and  _488
REMARK  197  A    between atoms: _487  and  _490
REMARK  198  A    between atoms: _490  and  _491
REMARK  199  A    between atoms: _501  and  _503
REMARK  200  A    between atoms: _503  and  _504
REMARK  201  A    between atoms: _503  and  _506
REMARK  202  A    between atoms: _508  and  _510
REMARK  203  A    between atoms: _510  and  _511
REMARK  204  A    between atoms: _510  and  _513
REMARK  205  A    between atoms: _513  and  _514
REMARK  206  A    between atoms: _514  and  _515
REMARK  207  A    between atoms: _518  and  _520
REMARK  208  A    between atoms: _520  and  _521
REMARK  209  A    between atoms: _520  and  _523
REMARK  210  A    between atoms: _523  and  _524
REMARK  211  A    between atoms: _527  and  _529
REMARK  212  A    between atoms: _529  and  _530
REMARK  213  A    between atoms: _529  and  _532
REMARK  214  A    between atoms: _532  and  _533
REMARK  215  A    between atoms: _538  and  _539
REMARK  216  A    between atoms: _541  and  _543
REMARK  217  A    between atoms: _543  and  _544
REMARK  218  A    between atoms: _546  and  _548
REMARK  219  A    between atoms: _548  and  _549
REMARK  220  A    between atoms: _552  and  _554
REMARK  221  A    between atoms: _554  and  _555
REMARK  222  A    between atoms: _554  and  _557
REMARK  223  A    between atoms: _559  and  _561
REMARK  224  A    between atoms: _561  and  _562
REMARK  225  A    between atoms: _561  and  _564
REMARK  226  A    between atoms: _564  and  _565
REMARK  227  A    between atoms: _570  and  _571
REMARK  228  A    between atoms: _573  and  _575
REMARK  229  A    between atoms: _575  and  _576
REMARK  230  A    between atoms: _575  and  _578
REMARK  231  A    between atoms: _578  and  _579
REMARK  232  A    between atoms: _584  and  _586
REMARK  233  A    between atoms: _586  and  _587
REMARK  234  A    between atoms: _586  and  _589
REMARK  235  A    between atoms: _589  and  _590
REMARK  236  A    between atoms: _596  and  _598
REMARK  237  A    between atoms: _598  and  _599
REMARK  238  A    between atoms: _602  and  _604
REMARK  239  A    between atoms: _604  and  _605
REMARK  240  A    between atoms: _607  and  _609
REMARK  241  A    between atoms: _609  and  _610
REMARK  242  A    between atoms: _609  and  _612
REMARK  243  A    between atoms: _612  and  _613
REMARK  244  A    between atoms: _618  and  _619
REMARK  245  A    between atoms: _621  and  _623
REMARK  246  A    between atoms: _623  and  _624
REMARK  247  A    between atoms: _623  and  _626
REMARK  248  A    between atoms: _626  and  _627
REMARK  249  A    between atoms: _629  and  _631
REMARK  250  A    between atoms: _631  and  _632
REMARK  251  A    between atoms: _634  and  _636
REMARK  252  A    between atoms: _636  and  _637
REMARK                            x       y       z     vdW  Elec       q    Type
REMARK                         _______ _______ _______ _____ _____    ______ ____
ROOT
ATOM      1  O   HOH     1      30.941   8.505 -15.650  0.00  0.00    +0.000 OA
ENDROOT
TORSDOF 0
REMARK  Name = ../refined-set-2016/3hkw/3hkw_pocket.pdb
REMARK  252 active torsions:
REMARK  status: ('A' for Active; 'I' for Inactive)
REMARK    1  A    between atoms: _1  and  _3
REMARK    2  A    between atoms: _3  and  _4
REMARK    3  A    between atoms: _3  and  _6
REMARK    4  A    between atoms: _6  and  _7
REMARK    5  A    between atoms: _7  and  _8
REMARK    6  A    between atoms: _8  and  _9
REMARK    7  A    between atoms: _9  and  _10
REMARK    8  A    between atoms: _14  and  _16
REMARK    9  A    between atoms: _16  and  _17
REMARK   10  A    between atoms: _16  and  _19
REMARK   11  A    between atoms: _19  and  _20
REMARK   12  A    between atoms: _20  and  _21
REMARK   13  A    between atoms: _24  and  _26
REMARK   14  A    between atoms: _26  and  _27
REMARK   15  A    between atoms: _26  and  _29
REMARK   16  A    between atoms: _29  and  _30
REMARK   17  A    between atoms: _30  and  _31
REMARK   18  A    between atoms: _31  and  _32
REMARK   19  A    between atoms: _41  and  _43
REMARK   20  A    between atoms: _43  and  _44
REMARK   21  A    between atoms: _46  and  _48
REMARK   22  A    between atoms: _48  and  _49
REMARK   23  A    between atoms: _48  and  _51
REMARK   24  A    between atoms: _51  and  _52
REMARK   25  A    between atoms: _58  and  _60
REMARK   26  A    between atoms: _60  and  _61
REMARK   27  A    between atoms: _60  and  _63
REMARK   28  A    between atoms: _63  and  _64
REMARK   29  A    between atoms: _69  and  _70
REMARK   30  A    between atoms: _72  and  _74
REMARK   31  A    between atoms: _74  and  _75
REMARK   32  A    between atoms: _74  and  _77
REMARK   33  A    between atoms: _77  and  _78
REMARK   34  A    between atoms: _81  and  _82
REMARK   35  A    between atoms: _87  and  _89
REMARK   36  A    between atoms: _89  and  _90
REMARK   37  A    between atoms: _92  and  _94
REMARK   38  A    between atoms: _94  and  _95
REMARK   39  A    between atoms: _94  and  _97
REMARK   40  A    between atoms: _97  and  _98
REMARK   41  A    between atoms: _98  and  _99
REMARK   42  A    between atoms: _104  and  _106
REMARK   43  A    between atoms: _106  and  _107
REMARK   44  A    between atoms: _106  and  _109
REMARK   45  A    between atoms: _109  and  _110
REMARK   46  A    between atoms: _110  and  _111
REMARK   47  A    between atoms: _111  and  _112
REMARK   48  A    between atoms: _121  and  _123
REMARK   49  A    between atoms: _123  and  _124
REMARK   50  A    between atoms: _123  and  _126
REMARK   51  A    between atoms: _129  and  _131
REMARK   52  A    between atoms: _131  and  _132
REMARK   53  A    between atoms: _131  and  _134
REMARK   54  A    between atoms: _134  and  _135
REMARK   55  A    between atoms: _138  and  _140
REMARK   56  A    between atoms: _140  and  _141
REMARK   57  A    between atoms: _140  and  _143
REMARK   58  A    between atoms: _143  and  _144
REMARK   59  A    between atoms: _147  and  _149
REMARK   60  A    between atoms: _149  and  _150
REMARK   61  A    between atoms: _149  and  _152
REMARK   62  A    between atoms: _152  and  _153
REMARK   63  A    between atoms: _155  and  _157
REMARK   64  A    between atoms: _157  and  _158
REMARK   65  A    between atoms: _157  and  _160
REMARK   66  A    between atoms: _160  and  _161
REMARK   67  A    between atoms: _164  and  _166
REMARK   68  A    between atoms: _166  and  _167
REMARK   69  A    between atoms: _166  and  _169
REMARK   70  A    between atoms: _169  and  _170
REMARK   71  A    between atoms: _172  and  _174
REMARK   72  A    between atoms: _174  and  _175
REMARK   73  A    between atoms: _174  and  _177
REMARK   74  A    between atoms: _177  and  _178
REMARK   75  A    between atoms: _183  and  _185
REMARK   76  A    between atoms: _185  and  _186
REMARK   77  A    between atoms: _185  and  _188
REMARK   78  A    between atoms: _188  and  _189
REMARK   79  A    between atoms: _192  and  _194
REMARK   80  A    between atoms: _194  and  _195
REMARK   81  A    between atoms: _194  and  _197
REMARK   82  A    between atoms: _199  and  _201
REMARK   83  A    between atoms: _201  and  _202
REMARK   84  A    between atoms: _204  and  _206
REMARK   85  A    between atoms: _206  and  _207
REMARK   86  A    between atoms: _206  and  _209
REMARK   87  A    between atoms: _209  and  _210
REMARK   88  A    between atoms: _213  and  _215
REMARK   89  A    between atoms: _215  and  _216
REMARK   90  A    between atoms: _215  and  _218
REMARK   91  A    between atoms: _218  and  _219
REMARK   92  A    between atoms: _222  and  _224
REMARK   93  A    between atoms: _224  and  _225
REMARK   94  A    between atoms: _224  and  _227
REMARK   95  A    between atoms: _227  and  _228
REMARK   96  A    between atoms: _230  and  _232
REMARK   97  A    between atoms: _232  and  _233
REMARK   98  A    between atoms: _232  and  _235
REMARK   99  A    between atoms: _237  and  _239
REMARK  100  A    between atoms: _239  and  _240
REMARK  101  A    between atoms: _239  and  _242
REMARK  102  A    between atoms: _242  and  _243
REMARK  103  A    between atoms: _245  and  _247
REMARK  104  A    between atoms: _247  and  _248
REMARK  105  A    between atoms: _247  and  _250
REMARK  106  A    between atoms: _250  and  _251
REMARK  107  A    between atoms: _253  and  _255
REMARK  108  A    between atoms: _255  and  _256
REMARK  109  A    between atoms: _255  and  _258
REMARK  110  A    between atoms: _258  and  _259
REMARK  111  A    between atoms: _264  and  _266
REMARK  112  A    between atoms: _266  and  _267
REMARK  113  A    between atoms: _266  and  _269
REMARK  114  A    between atoms: _269  and  _270
REMARK  115  A    between atoms: _275  and  _276
REMARK  116  A    between atoms: _278  and  _280
REMARK  117  A    between atoms: _280  and  _281
REMARK  118  A    between atoms: _280  and  _283
REMARK  119  A    between atoms: _283  and  _284
REMARK  120  A    between atoms: _287  and  _289
REMARK  121  A    between atoms: _289  and  _290
REMARK  122  A    between atoms: _289  and  _292
REMARK  123  A    between atoms: _292  and  _293
REMARK  124  A    between atoms: _296  and  _298
REMARK  125  A    between atoms: _298  and  _299
REMARK  126  A    between atoms: _298  and  _301
REMARK  127  A    between atoms: _301  and  _302
REMARK  128  A    between atoms: _302  and  _303
REMARK  129  A    between atoms: _303  and  _304
REMARK  130  A    between atoms: _313  and  _315
REMARK  131  A    between atoms: _315  and  _316
REMARK  132  A    between atoms: _315  and  _318
REMARK  133  A    between atoms: _318  and  _319
REMARK  134  A    between atoms: _323  and  _324
REMARK  135  A    between atoms: _329  and  _331
REMARK  136  A    between atoms: _331  and  _332
REMARK  137  A    between atoms: _331  and  _334
REMARK  138  A    between atoms: _334  and  _335
REMARK  139  A    between atoms: _335  and  _336
REMARK  140  A    between atoms: _336  and  _337
REMARK  141  A    between atoms: _346  and  _348
REMARK  142  A    between atoms: _348  and  _349
REMARK  143  A    between atoms: _348  and  _351
REMARK  144  A    between atoms: _351  and  _352
REMARK  145  A    between atoms: _352  and  _353
REMARK  146  A    between atoms: _356  and  _358
REMARK  147  A    between atoms: _358  and  _359
REMARK  148  A    between atoms: _358  and  _361
REMARK  149  A    between atoms: _364  and  _366
REMARK  150  A    between atoms: _366  and  _367
REMARK  151  A    between atoms: _366  and  _369
REMARK  152  A    between atoms: _369  and  _370
REMARK  153  A    between atoms: _375  and  _377
REMARK  154  A    between atoms: _377  and  _378
REMARK  155  A    between atoms: _377  and  _380
REMARK  156  A    between atoms: _380  and  _381
REMARK  157  A    between atoms: _383  and  _385
REMARK  158  A    between atoms: _385  and  _386
REMARK  159  A    between atoms: _385  and  _388
REMARK  160  A    between atoms: _388  and  _389
REMARK  161  A    between atoms: _399  and  _401
REMARK  162  A    between atoms: _401  and  _402
REMARK  163  A    between atoms: _401  and  _404
REMARK  164  A    between atoms: _404  and  _405
REMARK  165  A    between atoms: _408  and  _410
REMARK  166  A    between atoms: _410  and  _411
REMARK  167  A    between atoms: _413  and  _415
REMARK  168  A    between atoms: _415  and  _416
REMARK  169  A    between atoms: _415  and  _418
REMARK  170  A    between atoms: _418  and  _419
REMARK  171  A    between atoms: _424  and  _426
REMARK  172  A    between atoms: _426  and  _427
REMARK  173  A    between atoms: _426  and  _429
REMARK  174  A    between atoms: _429  and  _430
REMARK  175  A    between atoms: _433  and  _435
REMARK  176  A    between atoms: _435  and  _436
REMARK  177  A    between atoms: _435  and  _438
REMARK  178  A    between atoms: _438  and  _439
REMARK  179  A    between atoms: _442  and  _444
REMARK  180  A    between atoms: _444  and  _445
REMARK  181  A    between atoms: _444  and  _447
REMARK  182  A    between atoms: _447  and  _448
REMARK  183  A    between atoms: _448  and  _449
REMARK  184  A    between atoms: _451  and  _453
REMARK  185  A    between atoms: _453  and  _454
REMARK  186  A    between atoms: _453  and  _456
REMARK  187  A    between atoms: _456  and  _457
REMARK  188  A    between atoms: _463  and  _465
REMARK  189  A    between atoms: _465  and  _466
REMARK  190  A    between atoms: _470  and  _471
REMARK  191  A    between atoms: _476  and  _478
REMARK  192  A    between atoms: _478  and  _479
REMARK  193  A    between atoms: _478  and  _481
REMARK  194  A    between atoms: _481  and  _482
REMARK  195  A    between atoms: _485  and  _487
REMARK  196  A    between atoms: _487  and  _488
REMARK  197  A    between atoms: _487  and  _490
REMARK  198  A    between atoms: _490  and  _491
REMARK  199  A    between atoms: _501  and  _503
REMARK  200  A    between atoms: _503  and  _504
REMARK  201  A    between atoms: _503  and  _506
REMARK  202  A    between atoms: _508  and  _510
REMARK  203  A    between atoms: _510  and  _511
REMARK  204  A    between atoms: _510  and  _513
REMARK  205  A    between atoms: _513  and  _514
REMARK  206  A    between atoms: _514  and  _515
REMARK  207  A    between atoms: _518  and  _520
REMARK  208  A    between atoms: _520  and  _521
REMARK  209  A    between atoms: _520  and  _523
REMARK  210  A    between atoms: _523  and  _524
REMARK  211  A    between atoms: _527  and  _529
REMARK  212  A    between atoms: _529  and  _530
REMARK  213  A    between atoms: _529  and  _532
REMARK  214  A    between atoms: _532  and  _533
REMARK  215  A    between atoms: _538  and  _539
REMARK  216  A    between atoms: _541  and  _543
REMARK  217  A    between atoms: _543  and  _544
REMARK  218  A    between atoms: _546  and  _548
REMARK  219  A    between atoms: _548  and  _549
REMARK  220  A    between atoms: _552  and  _554
REMARK  221  A    between atoms: _554  and  _555
REMARK  222  A    between atoms: _554  and  _557
REMARK  223  A    between atoms: _559  and  _561
REMARK  224  A    between atoms: _561  and  _562
REMARK  225  A    between atoms: _561  and  _564
REMARK  226  A    between atoms: _564  and  _565
REMARK  227  A    between atoms: _570  and  _571
REMARK  228  A    between atoms: _573  and  _575
REMARK  229  A    between atoms: _575  and  _576
REMARK  230  A    between atoms: _575  and  _578
REMARK  231  A    between atoms: _578  and  _579
REMARK  232  A    between atoms: _584  and  _586
REMARK  233  A    between atoms: _586  and  _587
REMARK  234  A    between atoms: _586  and  _589
REMARK  235  A    between atoms: _589  and  _590
REMARK  236  A    between atoms: _596  and  _598
REMARK  237  A    between atoms: _598  and  _599
REMARK  238  A    between atoms: _602  and  _604
REMARK  239  A    between atoms: _604  and  _605
REMARK  240  A    between atoms: _607  and  _609
REMARK  241  A    between atoms: _609  and  _610
REMARK  242  A    between atoms: _609  and  _612
REMARK  243  A    between atoms: _612  and  _613
REMARK  244  A    between atoms: _618  and  _619
REMARK  245  A    between atoms: _621  and  _623
REMARK  246  A    between atoms: _623  and  _624
REMARK  247  A    between atoms: _623  and  _626
REMARK  248  A    between atoms: _626  and  _627
REMARK  249  A    between atoms: _629  and  _631
REMARK  250  A    between atoms: _631  and  _632
REMARK  251  A    between atoms: _634  and  _636
REMARK  252  A    between atoms: _636  and  _637
REMARK                            x       y       z     vdW  Elec       q    Type
REMARK                         _______ _______ _______ _____ _____    ______ ____
ROOT
ATOM      1  O   HOH     1      35.578  -6.559 -14.737  0.00  0.00    +0.000 OA
ENDROOT
TORSDOF 0
REMARK  Name = ../refined-set-2016/3hkw/3hkw_pocket.pdb
REMARK  252 active torsions:
REMARK  status: ('A' for Active; 'I' for Inactive)
REMARK    1  A    between atoms: _1  and  _3
REMARK    2  A    between atoms: _3  and  _4
REMARK    3  A    between atoms: _3  and  _6
REMARK    4  A    between atoms: _6  and  _7
REMARK    5  A    between atoms: _7  and  _8
REMARK    6  A    between atoms: _8  and  _9
REMARK    7  A    between atoms: _9  and  _10
REMARK    8  A    between atoms: _14  and  _16
REMARK    9  A    between atoms: _16  and  _17
REMARK   10  A    between atoms: _16  and  _19
REMARK   11  A    between atoms: _19  and  _20
REMARK   12  A    between atoms: _20  and  _21
REMARK   13  A    between atoms: _24  and  _26
REMARK   14  A    between atoms: _26  and  _27
REMARK   15  A    between atoms: _26  and  _29
REMARK   16  A    between atoms: _29  and  _30
REMARK   17  A    between atoms: _30  and  _31
REMARK   18  A    between atoms: _31  and  _32
REMARK   19  A    between atoms: _41  and  _43
REMARK   20  A    between atoms: _43  and  _44
REMARK   21  A    between atoms: _46  and  _48
REMARK   22  A    between atoms: _48  and  _49
REMARK   23  A    between atoms: _48  and  _51
REMARK   24  A    between atoms: _51  and  _52
REMARK   25  A    between atoms: _58  and  _60
REMARK   26  A    between atoms: _60  and  _61
REMARK   27  A    between atoms: _60  and  _63
REMARK   28  A    between atoms: _63  and  _64
REMARK   29  A    between atoms: _69  and  _70
REMARK   30  A    between atoms: _72  and  _74
REMARK   31  A    between atoms: _74  and  _75
REMARK   32  A    between atoms: _74  and  _77
REMARK   33  A    between atoms: _77  and  _78
REMARK   34  A    between atoms: _81  and  _82
REMARK   35  A    between atoms: _87  and  _89
REMARK   36  A    between atoms: _89  and  _90
REMARK   37  A    between atoms: _92  and  _94
REMARK   38  A    between atoms: _94  and  _95
REMARK   39  A    between atoms: _94  and  _97
REMARK   40  A    between atoms: _97  and  _98
REMARK   41  A    between atoms: _98  and  _99
REMARK   42  A    between atoms: _104  and  _106
REMARK   43  A    between atoms: _106  and  _107
REMARK   44  A    between atoms: _106  and  _109
REMARK   45  A    between atoms: _109  and  _110
REMARK   46  A    between atoms: _110  and  _111
REMARK   47  A    between atoms: _111  and  _112
REMARK   48  A    between atoms: _121  and  _123
REMARK   49  A    between atoms: _123  and  _124
REMARK   50  A    between atoms: _123  and  _126
REMARK   51  A    between atoms: _129  and  _131
REMARK   52  A    between atoms: _131  and  _132
REMARK   53  A    between atoms: _131  and  _134
REMARK   54  A    between atoms: _134  and  _135
REMARK   55  A    between atoms: _138  and  _140
REMARK   56  A    between atoms: _140  and  _141
REMARK   57  A    between atoms: _140  and  _143
REMARK   58  A    between atoms: _143  and  _144
REMARK   59  A    between atoms: _147  and  _149
REMARK   60  A    between atoms: _149  and  _150
REMARK   61  A    between atoms: _149  and  _152
REMARK   62  A    between atoms: _152  and  _153
REMARK   63  A    between atoms: _155  and  _157
REMARK   64  A    between atoms: _157  and  _158
REMARK   65  A    between atoms: _157  and  _160
REMARK   66  A    between atoms: _160  and  _161
REMARK   67  A    between atoms: _164  and  _166
REMARK   68  A    between atoms: _166  and  _167
REMARK   69  A    between atoms: _166  and  _169
REMARK   70  A    between atoms: _169  and  _170
REMARK   71  A    between atoms: _172  and  _174
REMARK   72  A    between atoms: _174  and  _175
REMARK   73  A    between atoms: _174  and  _177
REMARK   74  A    between atoms: _177  and  _178
REMARK   75  A    between atoms: _183  and  _185
REMARK   76  A    between atoms: _185  and  _186
REMARK   77  A    between atoms: _185  and  _188
REMARK   78  A    between atoms: _188  and  _189
REMARK   79  A    between atoms: _192  and  _194
REMARK   80  A    between atoms: _194  and  _195
REMARK   81  A    between atoms: _194  and  _197
REMARK   82  A    between atoms: _199  and  _201
REMARK   83  A    between atoms: _201  and  _202
REMARK   84  A    between atoms: _204  and  _206
REMARK   85  A    between atoms: _206  and  _207
REMARK   86  A    between atoms: _206  and  _209
REMARK   87  A    between atoms: _209  and  _210
REMARK   88  A    between atoms: _213  and  _215
REMARK   89  A    between atoms: _215  and  _216
REMARK   90  A    between atoms: _215  and  _218
REMARK   91  A    between atoms: _218  and  _219
REMARK   92  A    between atoms: _222  and  _224
REMARK   93  A    between atoms: _224  and  _225
REMARK   94  A    between atoms: _224  and  _227
REMARK   95  A    between atoms: _227  and  _228
REMARK   96  A    between atoms: _230  and  _232
REMARK   97  A    between atoms: _232  and  _233
REMARK   98  A    between atoms: _232  and  _235
REMARK   99  A    between atoms: _237  and  _239
REMARK  100  A    between atoms: _239  and  _240
REMARK  101  A    between atoms: _239  and  _242
REMARK  102  A    between atoms: _242  and  _243
REMARK  103  A    between atoms: _245  and  _247
REMARK  104  A    between atoms: _247  and  _248
REMARK  105  A    between atoms: _247  and  _250
REMARK  106  A    between atoms: _250  and  _251
REMARK  107  A    between atoms: _253  and  _255
REMARK  108  A    between atoms: _255  and  _256
REMARK  109  A    between atoms: _255  and  _258
REMARK  110  A    between atoms: _258  and  _259
REMARK  111  A    between atoms: _264  and  _266
REMARK  112  A    between atoms: _266  and  _267
REMARK  113  A    between atoms: _266  and  _269
REMARK  114  A    between atoms: _269  and  _270
REMARK  115  A    between atoms: _275  and  _276
REMARK  116  A    between atoms: _278  and  _280
REMARK  117  A    between atoms: _280  and  _281
REMARK  118  A    between atoms: _280  and  _283
REMARK  119  A    between atoms: _283  and  _284
REMARK  120  A    between atoms: _287  and  _289
REMARK  121  A    between atoms: _289  and  _290
REMARK  122  A    between atoms: _289  and  _292
REMARK  123  A    between atoms: _292  and  _293
REMARK  124  A    between atoms: _296  and  _298
REMARK  125  A    between atoms: _298  and  _299
REMARK  126  A    between atoms: _298  and  _301
REMARK  127  A    between atoms: _301  and  _302
REMARK  128  A    between atoms: _302  and  _303
REMARK  129  A    between atoms: _303  and  _304
REMARK  130  A    between atoms: _313  and  _315
REMARK  131  A    between atoms: _315  and  _316
REMARK  132  A    between atoms: _315  and  _318
REMARK  133  A    between atoms: _318  and  _319
REMARK  134  A    between atoms: _323  and  _324
REMARK  135  A    between atoms: _329  and  _331
REMARK  136  A    between atoms: _331  and  _332
REMARK  137  A    between atoms: _331  and  _334
REMARK  138  A    between atoms: _334  and  _335
REMARK  139  A    between atoms: _335  and  _336
REMARK  140  A    between atoms: _336  and  _337
REMARK  141  A    between atoms: _346  and  _348
REMARK  142  A    between atoms: _348  and  _349
REMARK  143  A    between atoms: _348  and  _351
REMARK  144  A    between atoms: _351  and  _352
REMARK  145  A    between atoms: _352  and  _353
REMARK  146  A    between atoms: _356  and  _358
REMARK  147  A    between atoms: _358  and  _359
REMARK  148  A    between atoms: _358  and  _361
REMARK  149  A    between atoms: _364  and  _366
REMARK  150  A    between atoms: _366  and  _367
REMARK  151  A    between atoms: _366  and  _369
REMARK  152  A    between atoms: _369  and  _370
REMARK  153  A    between atoms: _375  and  _377
REMARK  154  A    between atoms: _377  and  _378
REMARK  155  A    between atoms: _377  and  _380
REMARK  156  A    between atoms: _380  and  _381
REMARK  157  A    between atoms: _383  and  _385
REMARK  158  A    between atoms: _385  and  _386
REMARK  159  A    between atoms: _385  and  _388
REMARK  160  A    between atoms: _388  and  _389
REMARK  161  A    between atoms: _399  and  _401
REMARK  162  A    between atoms: _401  and  _402
REMARK  163  A    between atoms: _401  and  _404
REMARK  164  A    between atoms: _404  and  _405
REMARK  165  A    between atoms: _408  and  _410
REMARK  166  A    between atoms: _410  and  _411
REMARK  167  A    between atoms: _413  and  _415
REMARK  168  A    between atoms: _415  and  _416
REMARK  169  A    between atoms: _415  and  _418
REMARK  170  A    between atoms: _418  and  _419
REMARK  171  A    between atoms: _424  and  _426
REMARK  172  A    between atoms: _426  and  _427
REMARK  173  A    between atoms: _426  and  _429
REMARK  174  A    between atoms: _429  and  _430
REMARK  175  A    between atoms: _433  and  _435
REMARK  176  A    between atoms: _435  and  _436
REMARK  177  A    between atoms: _435  and  _438
REMARK  178  A    between atoms: _438  and  _439
REMARK  179  A    between atoms: _442  and  _444
REMARK  180  A    between atoms: _444  and  _445
REMARK  181  A    between atoms: _444  and  _447
REMARK  182  A    between atoms: _447  and  _448
REMARK  183  A    between atoms: _448  and  _449
REMARK  184  A    between atoms: _451  and  _453
REMARK  185  A    between atoms: _453  and  _454
REMARK  186  A    between atoms: _453  and  _456
REMARK  187  A    between atoms: _456  and  _457
REMARK  188  A    between atoms: _463  and  _465
REMARK  189  A    between atoms: _465  and  _466
REMARK  190  A    between atoms: _470  and  _471
REMARK  191  A    between atoms: _476  and  _478
REMARK  192  A    between atoms: _478  and  _479
REMARK  193  A    between atoms: _478  and  _481
REMARK  194  A    between atoms: _481  and  _482
REMARK  195  A    between atoms: _485  and  _487
REMARK  196  A    between atoms: _487  and  _488
REMARK  197  A    between atoms: _487  and  _490
REMARK  198  A    between atoms: _490  and  _491
REMARK  199  A    between atoms: _501  and  _503
REMARK  200  A    between atoms: _503  and  _504
REMARK  201  A    between atoms: _503  and  _506
REMARK  202  A    between atoms: _508  and  _510
REMARK  203  A    between atoms: _510  and  _511
REMARK  204  A    between atoms: _510  and  _513
REMARK  205  A    between atoms: _513  and  _514
REMARK  206  A    between atoms: _514  and  _515
REMARK  207  A    between atoms: _518  and  _520
REMARK  208  A    between atoms: _520  and  _521
REMARK  209  A    between atoms: _520  and  _523
REMARK  210  A    between atoms: _523  and  _524
REMARK  211  A    between atoms: _527  and  _529
REMARK  212  A    between atoms: _529  and  _530
REMARK  213  A    between atoms: _529  and  _532
REMARK  214  A    between atoms: _532  and  _533
REMARK  215  A    between atoms: _538  and  _539
REMARK  216  A    between atoms: _541  and  _543
REMARK  217  A    between atoms: _543  and  _544
REMARK  218  A    between atoms: _546  and  _548
REMARK  219  A    between atoms: _548  and  _549
REMARK  220  A    between atoms: _552  and  _554
REMARK  221  A    between atoms: _554  and  _555
REMARK  222  A    between atoms: _554  and  _557
REMARK  223  A    between atoms: _559  and  _561
REMARK  224  A    between atoms: _561  and  _562
REMARK  225  A    between atoms: _561  and  _564
REMARK  226  A    between atoms: _564  and  _565
REMARK  227  A    between atoms: _570  and  _571
REMARK  228  A    between atoms: _573  and  _575
REMARK  229  A    between atoms: _575  and  _576
REMARK  230  A    between atoms: _575  and  _578
REMARK  231  A    between atoms: _578  and  _579
REMARK  232  A    between atoms: _584  and  _586
REMARK  233  A    between atoms: _586  and  _587
REMARK  234  A    between atoms: _586  and  _589
REMARK  235  A    between atoms: _589  and  _590
REMARK  236  A    between atoms: _596  and  _598
REMARK  237  A    between atoms: _598  and  _599
REMARK  238  A    between atoms: _602  and  _604
REMARK  239  A    between atoms: _604  and  _605
REMARK  240  A    between atoms: _607  and  _609
REMARK  241  A    between atoms: _609  and  _610
REMARK  242  A    between atoms: _609  and  _612
REMARK  243  A    between atoms: _612  and  _613
REMARK  244  A    between atoms: _618  and  _619
REMARK  245  A    between atoms: _621  and  _623
REMARK  246  A    between atoms: _623  and  _624
REMARK  247  A    between atoms: _623  and  _626
REMARK  248  A    between atoms: _626  and  _627
REMARK  249  A    between atoms: _629  and  _631
REMARK  250  A    between atoms: _631  and  _632
REMARK  251  A    between atoms: _634  and  _636
REMARK  252  A    between atoms: _636  and  _637
REMARK                            x       y       z     vdW  Elec       q    Type
REMARK                         _______ _______ _______ _____ _____    ______ ____
ROOT
ATOM      1  O   HOH     1      36.949   1.908 -24.739  0.00  0.00    +0.000 OA
ENDROOT
TORSDOF 0
REMARK  Name = ../refined-set-2016/3hkw/3hkw_pocket.pdb
REMARK  252 active torsions:
REMARK  status: ('A' for Active; 'I' for Inactive)
REMARK    1  A    between atoms: _1  and  _3
REMARK    2  A    between atoms: _3  and  _4
REMARK    3  A    between atoms: _3  and  _6
REMARK    4  A    between atoms: _6  and  _7
REMARK    5  A    between atoms: _7  and  _8
REMARK    6  A    between atoms: _8  and  _9
REMARK    7  A    between atoms: _9  and  _10
REMARK    8  A    between atoms: _14  and  _16
REMARK    9  A    between atoms: _16  and  _17
REMARK   10  A    between atoms: _16  and  _19
REMARK   11  A    between atoms: _19  and  _20
REMARK   12  A    between atoms: _20  and  _21
REMARK   13  A    between atoms: _24  and  _26
REMARK   14  A    between atoms: _26  and  _27
REMARK   15  A    between atoms: _26  and  _29
REMARK   16  A    between atoms: _29  and  _30
REMARK   17  A    between atoms: _30  and  _31
REMARK   18  A    between atoms: _31  and  _32
REMARK   19  A    between atoms: _41  and  _43
REMARK   20  A    between atoms: _43  and  _44
REMARK   21  A    between atoms: _46  and  _48
REMARK   22  A    between atoms: _48  and  _49
REMARK   23  A    between atoms: _48  and  _51
REMARK   24  A    between atoms: _51  and  _52
REMARK   25  A    between atoms: _58  and  _60
REMARK   26  A    between atoms: _60  and  _61
REMARK   27  A    between atoms: _60  and  _63
REMARK   28  A    between atoms: _63  and  _64
REMARK   29  A    between atoms: _69  and  _70
REMARK   30  A    between atoms: _72  and  _74
REMARK   31  A    between atoms: _74  and  _75
REMARK   32  A    between atoms: _74  and  _77
REMARK   33  A    between atoms: _77  and  _78
REMARK   34  A    between atoms: _81  and  _82
REMARK   35  A    between atoms: _87  and  _89
REMARK   36  A    between atoms: _89  and  _90
REMARK   37  A    between atoms: _92  and  _94
REMARK   38  A    between atoms: _94  and  _95
REMARK   39  A    between atoms: _94  and  _97
REMARK   40  A    between atoms: _97  and  _98
REMARK   41  A    between atoms: _98  and  _99
REMARK   42  A    between atoms: _104  and  _106
REMARK   43  A    between atoms: _106  and  _107
REMARK   44  A    between atoms: _106  and  _109
REMARK   45  A    between atoms: _109  and  _110
REMARK   46  A    between atoms: _110  and  _111
REMARK   47  A    between atoms: _111  and  _112
REMARK   48  A    between atoms: _121  and  _123
REMARK   49  A    between atoms: _123  and  _124
REMARK   50  A    between atoms: _123  and  _126
REMARK   51  A    between atoms: _129  and  _131
REMARK   52  A    between atoms: _131  and  _132
REMARK   53  A    between atoms: _131  and  _134
REMARK   54  A    between atoms: _134  and  _135
REMARK   55  A    between atoms: _138  and  _140
REMARK   56  A    between atoms: _140  and  _141
REMARK   57  A    between atoms: _140  and  _143
REMARK   58  A    between atoms: _143  and  _144
REMARK   59  A    between atoms: _147  and  _149
REMARK   60  A    between atoms: _149  and  _150
REMARK   61  A    between atoms: _149  and  _152
REMARK   62  A    between atoms: _152  and  _153
REMARK   63  A    between atoms: _155  and  _157
REMARK   64  A    between atoms: _157  and  _158
REMARK   65  A    between atoms: _157  and  _160
REMARK   66  A    between atoms: _160  and  _161
REMARK   67  A    between atoms: _164  and  _166
REMARK   68  A    between atoms: _166  and  _167
REMARK   69  A    between atoms: _166  and  _169
REMARK   70  A    between atoms: _169  and  _170
REMARK   71  A    between atoms: _172  and  _174
REMARK   72  A    between atoms: _174  and  _175
REMARK   73  A    between atoms: _174  and  _177
REMARK   74  A    between atoms: _177  and  _178
REMARK   75  A    between atoms: _183  and  _185
REMARK   76  A    between atoms: _185  and  _186
REMARK   77  A    between atoms: _185  and  _188
REMARK   78  A    between atoms: _188  and  _189
REMARK   79  A    between atoms: _192  and  _194
REMARK   80  A    between atoms: _194  and  _195
REMARK   81  A    between atoms: _194  and  _197
REMARK   82  A    between atoms: _199  and  _201
REMARK   83  A    between atoms: _201  and  _202
REMARK   84  A    between atoms: _204  and  _206
REMARK   85  A    between atoms: _206  and  _207
REMARK   86  A    between atoms: _206  and  _209
REMARK   87  A    between atoms: _209  and  _210
REMARK   88  A    between atoms: _213  and  _215
REMARK   89  A    between atoms: _215  and  _216
REMARK   90  A    between atoms: _215  and  _218
REMARK   91  A    between atoms: _218  and  _219
REMARK   92  A    between atoms: _222  and  _224
REMARK   93  A    between atoms: _224  and  _225
REMARK   94  A    between atoms: _224  and  _227
REMARK   95  A    between atoms: _227  and  _228
REMARK   96  A    between atoms: _230  and  _232
REMARK   97  A    between atoms: _232  and  _233
REMARK   98  A    between atoms: _232  and  _235
REMARK   99  A    between atoms: _237  and  _239
REMARK  100  A    between atoms: _239  and  _240
REMARK  101  A    between atoms: _239  and  _242
REMARK  102  A    between atoms: _242  and  _243
REMARK  103  A    between atoms: _245  and  _247
REMARK  104  A    between atoms: _247  and  _248
REMARK  105  A    between atoms: _247  and  _250
REMARK  106  A    between atoms: _250  and  _251
REMARK  107  A    between atoms: _253  and  _255
REMARK  108  A    between atoms: _255  and  _256
REMARK  109  A    between atoms: _255  and  _258
REMARK  110  A    between atoms: _258  and  _259
REMARK  111  A    between atoms: _264  and  _266
REMARK  112  A    between atoms: _266  and  _267
REMARK  113  A    between atoms: _266  and  _269
REMARK  114  A    between atoms: _269  and  _270
REMARK  115  A    between atoms: _275  and  _276
REMARK  116  A    between atoms: _278  and  _280
REMARK  117  A    between atoms: _280  and  _281
REMARK  118  A    between atoms: _280  and  _283
REMARK  119  A    between atoms: _283  and  _284
REMARK  120  A    between atoms: _287  and  _289
REMARK  121  A    between atoms: _289  and  _290
REMARK  122  A    between atoms: _289  and  _292
REMARK  123  A    between atoms: _292  and  _293
REMARK  124  A    between atoms: _296  and  _298
REMARK  125  A    between atoms: _298  and  _299
REMARK  126  A    between atoms: _298  and  _301
REMARK  127  A    between atoms: _301  and  _302
REMARK  128  A    between atoms: _302  and  _303
REMARK  129  A    between atoms: _303  and  _304
REMARK  130  A    between atoms: _313  and  _315
REMARK  131  A    between atoms: _315  and  _316
REMARK  132  A    between atoms: _315  and  _318
REMARK  133  A    between atoms: _318  and  _319
REMARK  134  A    between atoms: _323  and  _324
REMARK  135  A    between atoms: _329  and  _331
REMARK  136  A    between atoms: _331  and  _332
REMARK  137  A    between atoms: _331  and  _334
REMARK  138  A    between atoms: _334  and  _335
REMARK  139  A    between atoms: _335  and  _336
REMARK  140  A    between atoms: _336  and  _337
REMARK  141  A    between atoms: _346  and  _348
REMARK  142  A    between atoms: _348  and  _349
REMARK  143  A    between atoms: _348  and  _351
REMARK  144  A    between atoms: _351  and  _352
REMARK  145  A    between atoms: _352  and  _353
REMARK  146  A    between atoms: _356  and  _358
REMARK  147  A    between atoms: _358  and  _359
REMARK  148  A    between atoms: _358  and  _361
REMARK  149  A    between atoms: _364  and  _366
REMARK  150  A    between atoms: _366  and  _367
REMARK  151  A    between atoms: _366  and  _369
REMARK  152  A    between atoms: _369  and  _370
REMARK  153  A    between atoms: _375  and  _377
REMARK  154  A    between atoms: _377  and  _378
REMARK  155  A    between atoms: _377  and  _380
REMARK  156  A    between atoms: _380  and  _381
REMARK  157  A    between atoms: _383  and  _385
REMARK  158  A    between atoms: _385  and  _386
REMARK  159  A    between atoms: _385  and  _388
REMARK  160  A    between atoms: _388  and  _389
REMARK  161  A    between atoms: _399  and  _401
REMARK  162  A    between atoms: _401  and  _402
REMARK  163  A    between atoms: _401  and  _404
REMARK  164  A    between atoms: _404  and  _405
REMARK  165  A    between atoms: _408  and  _410
REMARK  166  A    between atoms: _410  and  _411
REMARK  167  A    between atoms: _413  and  _415
REMARK  168  A    between atoms: _415  and  _416
REMARK  169  A    between atoms: _415  and  _418
REMARK  170  A    between atoms: _418  and  _419
REMARK  171  A    between atoms: _424  and  _426
REMARK  172  A    between atoms: _426  and  _427
REMARK  173  A    between atoms: _426  and  _429
REMARK  174  A    between atoms: _429  and  _430
REMARK  175  A    between atoms: _433  and  _435
REMARK  176  A    between atoms: _435  and  _436
REMARK  177  A    between atoms: _435  and  _438
REMARK  178  A    between atoms: _438  and  _439
REMARK  179  A    between atoms: _442  and  _444
REMARK  180  A    between atoms: _444  and  _445
REMARK  181  A    between atoms: _444  and  _447
REMARK  182  A    between atoms: _447  and  _448
REMARK  183  A    between atoms: _448  and  _449
REMARK  184  A    between atoms: _451  and  _453
REMARK  185  A    between atoms: _453  and  _454
REMARK  186  A    between atoms: _453  and  _456
REMARK  187  A    between atoms: _456  and  _457
REMARK  188  A    between atoms: _463  and  _465
REMARK  189  A    between atoms: _465  and  _466
REMARK  190  A    between atoms: _470  and  _471
REMARK  191  A    between atoms: _476  and  _478
REMARK  192  A    between atoms: _478  and  _479
REMARK  193  A    between atoms: _478  and  _481
REMARK  194  A    between atoms: _481  and  _482
REMARK  195  A    between atoms: _485  and  _487
REMARK  196  A    between atoms: _487  and  _488
REMARK  197  A    between atoms: _487  and  _490
REMARK  198  A    between atoms: _490  and  _491
REMARK  199  A    between atoms: _501  and  _503
REMARK  200  A    between atoms: _503  and  _504
REMARK  201  A    between atoms: _503  and  _506
REMARK  202  A    between atoms: _508  and  _510
REMARK  203  A    between atoms: _510  and  _511
REMARK  204  A    between atoms: _510  and  _513
REMARK  205  A    between atoms: _513  and  _514
REMARK  206  A    between atoms: _514  and  _515
REMARK  207  A    between atoms: _518  and  _520
REMARK  208  A    between atoms: _520  and  _521
REMARK  209  A    between atoms: _520  and  _523
REMARK  210  A    between atoms: _523  and  _524
REMARK  211  A    between atoms: _527  and  _529
REMARK  212  A    between atoms: _529  and  _530
REMARK  213  A    between atoms: _529  and  _532
REMARK  214  A    between atoms: _532  and  _533
REMARK  215  A    between atoms: _538  and  _539
REMARK  216  A    between atoms: _541  and  _543
REMARK  217  A    between atoms: _543  and  _544
REMARK  218  A    between atoms: _546  and  _548
REMARK  219  A    between atoms: _548  and  _549
REMARK  220  A    between atoms: _552  and  _554
REMARK  221  A    between atoms: _554  and  _555
REMARK  222  A    between atoms: _554  and  _557
REMARK  223  A    between atoms: _559  and  _561
REMARK  224  A    between atoms: _561  and  _562
REMARK  225  A    between atoms: _561  and  _564
REMARK  226  A    between atoms: _564  and  _565
REMARK  227  A    between atoms: _570  and  _571
REMARK  228  A    between atoms: _573  and  _575
REMARK  229  A    between atoms: _575  and  _576
REMARK  230  A    between atoms: _575  and  _578
REMARK  231  A    between atoms: _578  and  _579
REMARK  232  A    between atoms: _584  and  _586
REMARK  233  A    between atoms: _586  and  _587
REMARK  234  A    between atoms: _586  and  _589
REMARK  235  A    between atoms: _589  and  _590
REMARK  236  A    between atoms: _596  and  _598
REMARK  237  A    between atoms: _598  and  _599
REMARK  238  A    between atoms: _602  and  _604
REMARK  239  A    between atoms: _604  and  _605
REMARK  240  A    between atoms: _607  and  _609
REMARK  241  A    between atoms: _609  and  _610
REMARK  242  A    between atoms: _609  and  _612
REMARK  243  A    between atoms: _612  and  _613
REMARK  244  A    between atoms: _618  and  _619
REMARK  245  A    between atoms: _621  and  _623
REMARK  246  A    between atoms: _623  and  _624
REMARK  247  A    between atoms: _623  and  _626
REMARK  248  A    between atoms: _626  and  _627
REMARK  249  A    between atoms: _629  and  _631
REMARK  250  A    between atoms: _631  and  _632
REMARK  251  A    between atoms: _634  and  _636
REMARK  252  A    between atoms: _636  and  _637
REMARK                            x       y       z     vdW  Elec       q    Type
REMARK                         _______ _______ _______ _____ _____    ______ ____
ROOT
ATOM      1  O   HOH     1      36.987  10.289 -13.629  0.00  0.00    +0.000 OA
ENDROOT
TORSDOF 0
REMARK  Name = ../refined-set-2016/3hkw/3hkw_pocket.pdb
REMARK  252 active torsions:
REMARK  status: ('A' for Active; 'I' for Inactive)
REMARK    1  A    between atoms: _1  and  _3
REMARK    2  A    between atoms: _3  and  _4
REMARK    3  A    between atoms: _3  and  _6
REMARK    4  A    between atoms: _6  and  _7
REMARK    5  A    between atoms: _7  and  _8
REMARK    6  A    between atoms: _8  and  _9
REMARK    7  A    between atoms: _9  and  _10
REMARK    8  A    between atoms: _14  and  _16
REMARK    9  A    between atoms: _16  and  _17
REMARK   10  A    between atoms: _16  and  _19
REMARK   11  A    between atoms: _19  and  _20
REMARK   12  A    between atoms: _20  and  _21
REMARK   13  A    between atoms: _24  and  _26
REMARK   14  A    between atoms: _26  and  _27
REMARK   15  A    between atoms: _26  and  _29
REMARK   16  A    between atoms: _29  and  _30
REMARK   17  A    between atoms: _30  and  _31
REMARK   18  A    between atoms: _31  and  _32
REMARK   19  A    between atoms: _41  and  _43
REMARK   20  A    between atoms: _43  and  _44
REMARK   21  A    between atoms: _46  and  _48
REMARK   22  A    between atoms: _48  and  _49
REMARK   23  A    between atoms: _48  and  _51
REMARK   24  A    between atoms: _51  and  _52
REMARK   25  A    between atoms: _58  and  _60
REMARK   26  A    between atoms: _60  and  _61
REMARK   27  A    between atoms: _60  and  _63
REMARK   28  A    between atoms: _63  and  _64
REMARK   29  A    between atoms: _69  and  _70
REMARK   30  A    between atoms: _72  and  _74
REMARK   31  A    between atoms: _74  and  _75
REMARK   32  A    between atoms: _74  and  _77
REMARK   33  A    between atoms: _77  and  _78
REMARK   34  A    between atoms: _81  and  _82
REMARK   35  A    between atoms: _87  and  _89
REMARK   36  A    between atoms: _89  and  _90
REMARK   37  A    between atoms: _92  and  _94
REMARK   38  A    between atoms: _94  and  _95
REMARK   39  A    between atoms: _94  and  _97
REMARK   40  A    between atoms: _97  and  _98
REMARK   41  A    between atoms: _98  and  _99
REMARK   42  A    between atoms: _104  and  _106
REMARK   43  A    between atoms: _106  and  _107
REMARK   44  A    between atoms: _106  and  _109
REMARK   45  A    between atoms: _109  and  _110
REMARK   46  A    between atoms: _110  and  _111
REMARK   47  A    between atoms: _111  and  _112
REMARK   48  A    between atoms: _121  and  _123
REMARK   49  A    between atoms: _123  and  _124
REMARK   50  A    between atoms: _123  and  _126
REMARK   51  A    between atoms: _129  and  _131
REMARK   52  A    between atoms: _131  and  _132
REMARK   53  A    between atoms: _131  and  _134
REMARK   54  A    between atoms: _134  and  _135
REMARK   55  A    between atoms: _138  and  _140
REMARK   56  A    between atoms: _140  and  _141
REMARK   57  A    between atoms: _140  and  _143
REMARK   58  A    between atoms: _143  and  _144
REMARK   59  A    between atoms: _147  and  _149
REMARK   60  A    between atoms: _149  and  _150
REMARK   61  A    between atoms: _149  and  _152
REMARK   62  A    between atoms: _152  and  _153
REMARK   63  A    between atoms: _155  and  _157
REMARK   64  A    between atoms: _157  and  _158
REMARK   65  A    between atoms: _157  and  _160
REMARK   66  A    between atoms: _160  and  _161
REMARK   67  A    between atoms: _164  and  _166
REMARK   68  A    between atoms: _166  and  _167
REMARK   69  A    between atoms: _166  and  _169
REMARK   70  A    between atoms: _169  and  _170
REMARK   71  A    between atoms: _172  and  _174
REMARK   72  A    between atoms: _174  and  _175
REMARK   73  A    between atoms: _174  and  _177
REMARK   74  A    between atoms: _177  and  _178
REMARK   75  A    between atoms: _183  and  _185
REMARK   76  A    between atoms: _185  and  _186
REMARK   77  A    between atoms: _185  and  _188
REMARK   78  A    between atoms: _188  and  _189
REMARK   79  A    between atoms: _192  and  _194
REMARK   80  A    between atoms: _194  and  _195
REMARK   81  A    between atoms: _194  and  _197
REMARK   82  A    between atoms: _199  and  _201
REMARK   83  A    between atoms: _201  and  _202
REMARK   84  A    between atoms: _204  and  _206
REMARK   85  A    between atoms: _206  and  _207
REMARK   86  A    between atoms: _206  and  _209
REMARK   87  A    between atoms: _209  and  _210
REMARK   88  A    between atoms: _213  and  _215
REMARK   89  A    between atoms: _215  and  _216
REMARK   90  A    between atoms: _215  and  _218
REMARK   91  A    between atoms: _218  and  _219
REMARK   92  A    between atoms: _222  and  _224
REMARK   93  A    between atoms: _224  and  _225
REMARK   94  A    between atoms: _224  and  _227
REMARK   95  A    between atoms: _227  and  _228
REMARK   96  A    between atoms: _230  and  _232
REMARK   97  A    between atoms: _232  and  _233
REMARK   98  A    between atoms: _232  and  _235
REMARK   99  A    between atoms: _237  and  _239
REMARK  100  A    between atoms: _239  and  _240
REMARK  101  A    between atoms: _239  and  _242
REMARK  102  A    between atoms: _242  and  _243
REMARK  103  A    between atoms: _245  and  _247
REMARK  104  A    between atoms: _247  and  _248
REMARK  105  A    between atoms: _247  and  _250
REMARK  106  A    between atoms: _250  and  _251
REMARK  107  A    between atoms: _253  and  _255
REMARK  108  A    between atoms: _255  and  _256
REMARK  109  A    between atoms: _255  and  _258
REMARK  110  A    between atoms: _258  and  _259
REMARK  111  A    between atoms: _264  and  _266
REMARK  112  A    between atoms: _266  and  _267
REMARK  113  A    between atoms: _266  and  _269
REMARK  114  A    between atoms: _269  and  _270
REMARK  115  A    between atoms: _275  and  _276
REMARK  116  A    between atoms: _278  and  _280
REMARK  117  A    between atoms: _280  and  _281
REMARK  118  A    between atoms: _280  and  _283
REMARK  119  A    between atoms: _283  and  _284
REMARK  120  A    between atoms: _287  and  _289
REMARK  121  A    between atoms: _289  and  _290
REMARK  122  A    between atoms: _289  and  _292
REMARK  123  A    between atoms: _292  and  _293
REMARK  124  A    between atoms: _296  and  _298
REMARK  125  A    between atoms: _298  and  _299
REMARK  126  A    between atoms: _298  and  _301
REMARK  127  A    between atoms: _301  and  _302
REMARK  128  A    between atoms: _302  and  _303
REMARK  129  A    between atoms: _303  and  _304
REMARK  130  A    between atoms: _313  and  _315
REMARK  131  A    between atoms: _315  and  _316
REMARK  132  A    between atoms: _315  and  _318
REMARK  133  A    between atoms: _318  and  _319
REMARK  134  A    between atoms: _323  and  _324
REMARK  135  A    between atoms: _329  and  _331
REMARK  136  A    between atoms: _331  and  _332
REMARK  137  A    between atoms: _331  and  _334
REMARK  138  A    between atoms: _334  and  _335
REMARK  139  A    between atoms: _335  and  _336
REMARK  140  A    between atoms: _336  and  _337
REMARK  141  A    between atoms: _346  and  _348
REMARK  142  A    between atoms: _348  and  _349
REMARK  143  A    between atoms: _348  and  _351
REMARK  144  A    between atoms: _351  and  _352
REMARK  145  A    between atoms: _352  and  _353
REMARK  146  A    between atoms: _356  and  _358
REMARK  147  A    between atoms: _358  and  _359
REMARK  148  A    between atoms: _358  and  _361
REMARK  149  A    between atoms: _364  and  _366
REMARK  150  A    between atoms: _366  and  _367
REMARK  151  A    between atoms: _366  and  _369
REMARK  152  A    between atoms: _369  and  _370
REMARK  153  A    between atoms: _375  and  _377
REMARK  154  A    between atoms: _377  and  _378
REMARK  155  A    between atoms: _377  and  _380
REMARK  156  A    between atoms: _380  and  _381
REMARK  157  A    between atoms: _383  and  _385
REMARK  158  A    between atoms: _385  and  _386
REMARK  159  A    between atoms: _385  and  _388
REMARK  160  A    between atoms: _388  and  _389
REMARK  161  A    between atoms: _399  and  _401
REMARK  162  A    between atoms: _401  and  _402
REMARK  163  A    between atoms: _401  and  _404
REMARK  164  A    between atoms: _404  and  _405
REMARK  165  A    between atoms: _408  and  _410
REMARK  166  A    between atoms: _410  and  _411
REMARK  167  A    between atoms: _413  and  _415
REMARK  168  A    between atoms: _415  and  _416
REMARK  169  A    between atoms: _415  and  _418
REMARK  170  A    between atoms: _418  and  _419
REMARK  171  A    between atoms: _424  and  _426
REMARK  172  A    between atoms: _426  and  _427
REMARK  173  A    between atoms: _426  and  _429
REMARK  174  A    between atoms: _429  and  _430
REMARK  175  A    between atoms: _433  and  _435
REMARK  176  A    between atoms: _435  and  _436
REMARK  177  A    between atoms: _435  and  _438
REMARK  178  A    between atoms: _438  and  _439
REMARK  179  A    between atoms: _442  and  _444
REMARK  180  A    between atoms: _444  and  _445
REMARK  181  A    between atoms: _444  and  _447
REMARK  182  A    between atoms: _447  and  _448
REMARK  183  A    between atoms: _448  and  _449
REMARK  184  A    between atoms: _451  and  _453
REMARK  185  A    between atoms: _453  and  _454
REMARK  186  A    between atoms: _453  and  _456
REMARK  187  A    between atoms: _456  and  _457
REMARK  188  A    between atoms: _463  and  _465
REMARK  189  A    between atoms: _465  and  _466
REMARK  190  A    between atoms: _470  and  _471
REMARK  191  A    between atoms: _476  and  _478
REMARK  192  A    between atoms: _478  and  _479
REMARK  193  A    between atoms: _478  and  _481
REMARK  194  A    between atoms: _481  and  _482
REMARK  195  A    between atoms: _485  and  _487
REMARK  196  A    between atoms: _487  and  _488
REMARK  197  A    between atoms: _487  and  _490
REMARK  198  A    between atoms: _490  and  _491
REMARK  199  A    between atoms: _501  and  _503
REMARK  200  A    between atoms: _503  and  _504
REMARK  201  A    between atoms: _503  and  _506
REMARK  202  A    between atoms: _508  and  _510
REMARK  203  A    between atoms: _510  and  _511
REMARK  204  A    between atoms: _510  and  _513
REMARK  205  A    between atoms: _513  and  _514
REMARK  206  A    between atoms: _514  and  _515
REMARK  207  A    between atoms: _518  and  _520
REMARK  208  A    between atoms: _520  and  _521
REMARK  209  A    between atoms: _520  and  _523
REMARK  210  A    between atoms: _523  and  _524
REMARK  211  A    between atoms: _527  and  _529
REMARK  212  A    between atoms: _529  and  _530
REMARK  213  A    between atoms: _529  and  _532
REMARK  214  A    between atoms: _532  and  _533
REMARK  215  A    between atoms: _538  and  _539
REMARK  216  A    between atoms: _541  and  _543
REMARK  217  A    between atoms: _543  and  _544
REMARK  218  A    between atoms: _546  and  _548
REMARK  219  A    between atoms: _548  and  _549
REMARK  220  A    between atoms: _552  and  _554
REMARK  221  A    between atoms: _554  and  _555
REMARK  222  A    between atoms: _554  and  _557
REMARK  223  A    between atoms: _559  and  _561
REMARK  224  A    between atoms: _561  and  _562
REMARK  225  A    between atoms: _561  and  _564
REMARK  226  A    between atoms: _564  and  _565
REMARK  227  A    between atoms: _570  and  _571
REMARK  228  A    between atoms: _573  and  _575
REMARK  229  A    between atoms: _575  and  _576
REMARK  230  A    between atoms: _575  and  _578
REMARK  231  A    between atoms: _578  and  _579
REMARK  232  A    between atoms: _584  and  _586
REMARK  233  A    between atoms: _586  and  _587
REMARK  234  A    between atoms: _586  and  _589
REMARK  235  A    between atoms: _589  and  _590
REMARK  236  A    between atoms: _596  and  _598
REMARK  237  A    between atoms: _598  and  _599
REMARK  238  A    between atoms: _602  and  _604
REMARK  239  A    between atoms: _604  and  _605
REMARK  240  A    between atoms: _607  and  _609
REMARK  241  A    between atoms: _609  and  _610
REMARK  242  A    between atoms: _609  and  _612
REMARK  243  A    between atoms: _612  and  _613
REMARK  244  A    between atoms: _618  and  _619
REMARK  245  A    between atoms: _621  and  _623
REMARK  246  A    between atoms: _623  and  _624
REMARK  247  A    between atoms: _623  and  _626
REMARK  248  A    between atoms: _626  and  _627
REMARK  249  A    between atoms: _629  and  _631
REMARK  250  A    between atoms: _631  and  _632
REMARK  251  A    between atoms: _634  and  _636
REMARK  252  A    between atoms: _636  and  _637
REMARK                            x       y       z     vdW  Elec       q    Type
REMARK                         _______ _______ _______ _____ _____    ______ ____
ROOT
ATOM      1  O   HOH     1      38.560  -1.712 -10.562  0.00  0.00    +0.000 OA
ENDROOT
TORSDOF 0
REMARK  Name = ../refined-set-2016/3hkw/3hkw_pocket.pdb
REMARK  252 active torsions:
REMARK  status: ('A' for Active; 'I' for Inactive)
REMARK    1  A    between atoms: _1  and  _3
REMARK    2  A    between atoms: _3  and  _4
REMARK    3  A    between atoms: _3  and  _6
REMARK    4  A    between atoms: _6  and  _7
REMARK    5  A    between atoms: _7  and  _8
REMARK    6  A    between atoms: _8  and  _9
REMARK    7  A    between atoms: _9  and  _10
REMARK    8  A    between atoms: _14  and  _16
REMARK    9  A    between atoms: _16  and  _17
REMARK   10  A    between atoms: _16  and  _19
REMARK   11  A    between atoms: _19  and  _20
REMARK   12  A    between atoms: _20  and  _21
REMARK   13  A    between atoms: _24  and  _26
REMARK   14  A    between atoms: _26  and  _27
REMARK   15  A    between atoms: _26  and  _29
REMARK   16  A    between atoms: _29  and  _30
REMARK   17  A    between atoms: _30  and  _31
REMARK   18  A    between atoms: _31  and  _32
REMARK   19  A    between atoms: _41  and  _43
REMARK   20  A    between atoms: _43  and  _44
REMARK   21  A    between atoms: _46  and  _48
REMARK   22  A    between atoms: _48  and  _49
REMARK   23  A    between atoms: _48  and  _51
REMARK   24  A    between atoms: _51  and  _52
REMARK   25  A    between atoms: _58  and  _60
REMARK   26  A    between atoms: _60  and  _61
REMARK   27  A    between atoms: _60  and  _63
REMARK   28  A    between atoms: _63  and  _64
REMARK   29  A    between atoms: _69  and  _70
REMARK   30  A    between atoms: _72  and  _74
REMARK   31  A    between atoms: _74  and  _75
REMARK   32  A    between atoms: _74  and  _77
REMARK   33  A    between atoms: _77  and  _78
REMARK   34  A    between atoms: _81  and  _82
REMARK   35  A    between atoms: _87  and  _89
REMARK   36  A    between atoms: _89  and  _90
REMARK   37  A    between atoms: _92  and  _94
REMARK   38  A    between atoms: _94  and  _95
REMARK   39  A    between atoms: _94  and  _97
REMARK   40  A    between atoms: _97  and  _98
REMARK   41  A    between atoms: _98  and  _99
REMARK   42  A    between atoms: _104  and  _106
REMARK   43  A    between atoms: _106  and  _107
REMARK   44  A    between atoms: _106  and  _109
REMARK   45  A    between atoms: _109  and  _110
REMARK   46  A    between atoms: _110  and  _111
REMARK   47  A    between atoms: _111  and  _112
REMARK   48  A    between atoms: _121  and  _123
REMARK   49  A    between atoms: _123  and  _124
REMARK   50  A    between atoms: _123  and  _126
REMARK   51  A    between atoms: _129  and  _131
REMARK   52  A    between atoms: _131  and  _132
REMARK   53  A    between atoms: _131  and  _134
REMARK   54  A    between atoms: _134  and  _135
REMARK   55  A    between atoms: _138  and  _140
REMARK   56  A    between atoms: _140  and  _141
REMARK   57  A    between atoms: _140  and  _143
REMARK   58  A    between atoms: _143  and  _144
REMARK   59  A    between atoms: _147  and  _149
REMARK   60  A    between atoms: _149  and  _150
REMARK   61  A    between atoms: _149  and  _152
REMARK   62  A    between atoms: _152  and  _153
REMARK   63  A    between atoms: _155  and  _157
REMARK   64  A    between atoms: _157  and  _158
REMARK   65  A    between atoms: _157  and  _160
REMARK   66  A    between atoms: _160  and  _161
REMARK   67  A    between atoms: _164  and  _166
REMARK   68  A    between atoms: _166  and  _167
REMARK   69  A    between atoms: _166  and  _169
REMARK   70  A    between atoms: _169  and  _170
REMARK   71  A    between atoms: _172  and  _174
REMARK   72  A    between atoms: _174  and  _175
REMARK   73  A    between atoms: _174  and  _177
REMARK   74  A    between atoms: _177  and  _178
REMARK   75  A    between atoms: _183  and  _185
REMARK   76  A    between atoms: _185  and  _186
REMARK   77  A    between atoms: _185  and  _188
REMARK   78  A    between atoms: _188  and  _189
REMARK   79  A    between atoms: _192  and  _194
REMARK   80  A    between atoms: _194  and  _195
REMARK   81  A    between atoms: _194  and  _197
REMARK   82  A    between atoms: _199  and  _201
REMARK   83  A    between atoms: _201  and  _202
REMARK   84  A    between atoms: _204  and  _206
REMARK   85  A    between atoms: _206  and  _207
REMARK   86  A    between atoms: _206  and  _209
REMARK   87  A    between atoms: _209  and  _210
REMARK   88  A    between atoms: _213  and  _215
REMARK   89  A    between atoms: _215  and  _216
REMARK   90  A    between atoms: _215  and  _218
REMARK   91  A    between atoms: _218  and  _219
REMARK   92  A    between atoms: _222  and  _224
REMARK   93  A    between atoms: _224  and  _225
REMARK   94  A    between atoms: _224  and  _227
REMARK   95  A    between atoms: _227  and  _228
REMARK   96  A    between atoms: _230  and  _232
REMARK   97  A    between atoms: _232  and  _233
REMARK   98  A    between atoms: _232  and  _235
REMARK   99  A    between atoms: _237  and  _239
REMARK  100  A    between atoms: _239  and  _240
REMARK  101  A    between atoms: _239  and  _242
REMARK  102  A    between atoms: _242  and  _243
REMARK  103  A    between atoms: _245  and  _247
REMARK  104  A    between atoms: _247  and  _248
REMARK  105  A    between atoms: _247  and  _250
REMARK  106  A    between atoms: _250  and  _251
REMARK  107  A    between atoms: _253  and  _255
REMARK  108  A    between atoms: _255  and  _256
REMARK  109  A    between atoms: _255  and  _258
REMARK  110  A    between atoms: _258  and  _259
REMARK  111  A    between atoms: _264  and  _266
REMARK  112  A    between atoms: _266  and  _267
REMARK  113  A    between atoms: _266  and  _269
REMARK  114  A    between atoms: _269  and  _270
REMARK  115  A    between atoms: _275  and  _276
REMARK  116  A    between atoms: _278  and  _280
REMARK  117  A    between atoms: _280  and  _281
REMARK  118  A    between atoms: _280  and  _283
REMARK  119  A    between atoms: _283  and  _284
REMARK  120  A    between atoms: _287  and  _289
REMARK  121  A    between atoms: _289  and  _290
REMARK  122  A    between atoms: _289  and  _292
REMARK  123  A    between atoms: _292  and  _293
REMARK  124  A    between atoms: _296  and  _298
REMARK  125  A    between atoms: _298  and  _299
REMARK  126  A    between atoms: _298  and  _301
REMARK  127  A    between atoms: _301  and  _302
REMARK  128  A    between atoms: _302  and  _303
REMARK  129  A    between atoms: _303  and  _304
REMARK  130  A    between atoms: _313  and  _315
REMARK  131  A    between atoms: _315  and  _316
REMARK  132  A    between atoms: _315  and  _318
REMARK  133  A    between atoms: _318  and  _319
REMARK  134  A    between atoms: _323  and  _324
REMARK  135  A    between atoms: _329  and  _331
REMARK  136  A    between atoms: _331  and  _332
REMARK  137  A    between atoms: _331  and  _334
REMARK  138  A    between atoms: _334  and  _335
REMARK  139  A    between atoms: _335  and  _336
REMARK  140  A    between atoms: _336  and  _337
REMARK  141  A    between atoms: _346  and  _348
REMARK  142  A    between atoms: _348  and  _349
REMARK  143  A    between atoms: _348  and  _351
REMARK  144  A    between atoms: _351  and  _352
REMARK  145  A    between atoms: _352  and  _353
REMARK  146  A    between atoms: _356  and  _358
REMARK  147  A    between atoms: _358  and  _359
REMARK  148  A    between atoms: _358  and  _361
REMARK  149  A    between atoms: _364  and  _366
REMARK  150  A    between atoms: _366  and  _367
REMARK  151  A    between atoms: _366  and  _369
REMARK  152  A    between atoms: _369  and  _370
REMARK  153  A    between atoms: _375  and  _377
REMARK  154  A    between atoms: _377  and  _378
REMARK  155  A    between atoms: _377  and  _380
REMARK  156  A    between atoms: _380  and  _381
REMARK  157  A    between atoms: _383  and  _385
REMARK  158  A    between atoms: _385  and  _386
REMARK  159  A    between atoms: _385  and  _388
REMARK  160  A    between atoms: _388  and  _389
REMARK  161  A    between atoms: _399  and  _401
REMARK  162  A    between atoms: _401  and  _402
REMARK  163  A    between atoms: _401  and  _404
REMARK  164  A    between atoms: _404  and  _405
REMARK  165  A    between atoms: _408  and  _410
REMARK  166  A    between atoms: _410  and  _411
REMARK  167  A    between atoms: _413  and  _415
REMARK  168  A    between atoms: _415  and  _416
REMARK  169  A    between atoms: _415  and  _418
REMARK  170  A    between atoms: _418  and  _419
REMARK  171  A    between atoms: _424  and  _426
REMARK  172  A    between atoms: _426  and  _427
REMARK  173  A    between atoms: _426  and  _429
REMARK  174  A    between atoms: _429  and  _430
REMARK  175  A    between atoms: _433  and  _435
REMARK  176  A    between atoms: _435  and  _436
REMARK  177  A    between atoms: _435  and  _438
REMARK  178  A    between atoms: _438  and  _439
REMARK  179  A    between atoms: _442  and  _444
REMARK  180  A    between atoms: _444  and  _445
REMARK  181  A    between atoms: _444  and  _447
REMARK  182  A    between atoms: _447  and  _448
REMARK  183  A    between atoms: _448  and  _449
REMARK  184  A    between atoms: _451  and  _453
REMARK  185  A    between atoms: _453  and  _454
REMARK  186  A    between atoms: _453  and  _456
REMARK  187  A    between atoms: _456  and  _457
REMARK  188  A    between atoms: _463  and  _465
REMARK  189  A    between atoms: _465  and  _466
REMARK  190  A    between atoms: _470  and  _471
REMARK  191  A    between atoms: _476  and  _478
REMARK  192  A    between atoms: _478  and  _479
REMARK  193  A    between atoms: _478  and  _481
REMARK  194  A    between atoms: _481  and  _482
REMARK  195  A    between atoms: _485  and  _487
REMARK  196  A    between atoms: _487  and  _488
REMARK  197  A    between atoms: _487  and  _490
REMARK  198  A    between atoms: _490  and  _491
REMARK  199  A    between atoms: _501  and  _503
REMARK  200  A    between atoms: _503  and  _504
REMARK  201  A    between atoms: _503  and  _506
REMARK  202  A    between atoms: _508  and  _510
REMARK  203  A    between atoms: _510  and  _511
REMARK  204  A    between atoms: _510  and  _513
REMARK  205  A    between atoms: _513  and  _514
REMARK  206  A    between atoms: _514  and  _515
REMARK  207  A    between atoms: _518  and  _520
REMARK  208  A    between atoms: _520  and  _521
REMARK  209  A    between atoms: _520  and  _523
REMARK  210  A    between atoms: _523  and  _524
REMARK  211  A    between atoms: _527  and  _529
REMARK  212  A    between atoms: _529  and  _530
REMARK  213  A    between atoms: _529  and  _532
REMARK  214  A    between atoms: _532  and  _533
REMARK  215  A    between atoms: _538  and  _539
REMARK  216  A    between atoms: _541  and  _543
REMARK  217  A    between atoms: _543  and  _544
REMARK  218  A    between atoms: _546  and  _548
REMARK  219  A    between atoms: _548  and  _549
REMARK  220  A    between atoms: _552  and  _554
REMARK  221  A    between atoms: _554  and  _555
REMARK  222  A    between atoms: _554  and  _557
REMARK  223  A    between atoms: _559  and  _561
REMARK  224  A    between atoms: _561  and  _562
REMARK  225  A    between atoms: _561  and  _564
REMARK  226  A    between atoms: _564  and  _565
REMARK  227  A    between atoms: _570  and  _571
REMARK  228  A    between atoms: _573  and  _575
REMARK  229  A    between atoms: _575  and  _576
REMARK  230  A    between atoms: _575  and  _578
REMARK  231  A    between atoms: _578  and  _579
REMARK  232  A    between atoms: _584  and  _586
REMARK  233  A    between atoms: _586  and  _587
REMARK  234  A    between atoms: _586  and  _589
REMARK  235  A    between atoms: _589  and  _590
REMARK  236  A    between atoms: _596  and  _598
REMARK  237  A    between atoms: _598  and  _599
REMARK  238  A    between atoms: _602  and  _604
REMARK  239  A    between atoms: _604  and  _605
REMARK  240  A    between atoms: _607  and  _609
REMARK  241  A    between atoms: _609  and  _610
REMARK  242  A    between atoms: _609  and  _612
REMARK  243  A    between atoms: _612  and  _613
REMARK  244  A    between atoms: _618  and  _619
REMARK  245  A    between atoms: _621  and  _623
REMARK  246  A    between atoms: _623  and  _624
REMARK  247  A    between atoms: _623  and  _626
REMARK  248  A    between atoms: _626  and  _627
REMARK  249  A    between atoms: _629  and  _631
REMARK  250  A    between atoms: _631  and  _632
REMARK  251  A    between atoms: _634  and  _636
REMARK  252  A    between atoms: _636  and  _637
REMARK                            x       y       z     vdW  Elec       q    Type
REMARK                         _______ _______ _______ _____ _____    ______ ____
ROOT
ATOM      1  O   HOH     1      34.850  -4.759 -22.397  0.00  0.00    +0.000 OA
ENDROOT
TORSDOF 0
REMARK  Name = ../refined-set-2016/3hkw/3hkw_pocket.pdb
REMARK  252 active torsions:
REMARK  status: ('A' for Active; 'I' for Inactive)
REMARK    1  A    between atoms: _1  and  _3
REMARK    2  A    between atoms: _3  and  _4
REMARK    3  A    between atoms: _3  and  _6
REMARK    4  A    between atoms: _6  and  _7
REMARK    5  A    between atoms: _7  and  _8
REMARK    6  A    between atoms: _8  and  _9
REMARK    7  A    between atoms: _9  and  _10
REMARK    8  A    between atoms: _14  and  _16
REMARK    9  A    between atoms: _16  and  _17
REMARK   10  A    between atoms: _16  and  _19
REMARK   11  A    between atoms: _19  and  _20
REMARK   12  A    between atoms: _20  and  _21
REMARK   13  A    between atoms: _24  and  _26
REMARK   14  A    between atoms: _26  and  _27
REMARK   15  A    between atoms: _26  and  _29
REMARK   16  A    between atoms: _29  and  _30
REMARK   17  A    between atoms: _30  and  _31
REMARK   18  A    between atoms: _31  and  _32
REMARK   19  A    between atoms: _41  and  _43
REMARK   20  A    between atoms: _43  and  _44
REMARK   21  A    between atoms: _46  and  _48
REMARK   22  A    between atoms: _48  and  _49
REMARK   23  A    between atoms: _48  and  _51
REMARK   24  A    between atoms: _51  and  _52
REMARK   25  A    between atoms: _58  and  _60
REMARK   26  A    between atoms: _60  and  _61
REMARK   27  A    between atoms: _60  and  _63
REMARK   28  A    between atoms: _63  and  _64
REMARK   29  A    between atoms: _69  and  _70
REMARK   30  A    between atoms: _72  and  _74
REMARK   31  A    between atoms: _74  and  _75
REMARK   32  A    between atoms: _74  and  _77
REMARK   33  A    between atoms: _77  and  _78
REMARK   34  A    between atoms: _81  and  _82
REMARK   35  A    between atoms: _87  and  _89
REMARK   36  A    between atoms: _89  and  _90
REMARK   37  A    between atoms: _92  and  _94
REMARK   38  A    between atoms: _94  and  _95
REMARK   39  A    between atoms: _94  and  _97
REMARK   40  A    between atoms: _97  and  _98
REMARK   41  A    between atoms: _98  and  _99
REMARK   42  A    between atoms: _104  and  _106
REMARK   43  A    between atoms: _106  and  _107
REMARK   44  A    between atoms: _106  and  _109
REMARK   45  A    between atoms: _109  and  _110
REMARK   46  A    between atoms: _110  and  _111
REMARK   47  A    between atoms: _111  and  _112
REMARK   48  A    between atoms: _121  and  _123
REMARK   49  A    between atoms: _123  and  _124
REMARK   50  A    between atoms: _123  and  _126
REMARK   51  A    between atoms: _129  and  _131
REMARK   52  A    between atoms: _131  and  _132
REMARK   53  A    between atoms: _131  and  _134
REMARK   54  A    between atoms: _134  and  _135
REMARK   55  A    between atoms: _138  and  _140
REMARK   56  A    between atoms: _140  and  _141
REMARK   57  A    between atoms: _140  and  _143
REMARK   58  A    between atoms: _143  and  _144
REMARK   59  A    between atoms: _147  and  _149
REMARK   60  A    between atoms: _149  and  _150
REMARK   61  A    between atoms: _149  and  _152
REMARK   62  A    between atoms: _152  and  _153
REMARK   63  A    between atoms: _155  and  _157
REMARK   64  A    between atoms: _157  and  _158
REMARK   65  A    between atoms: _157  and  _160
REMARK   66  A    between atoms: _160  and  _161
REMARK   67  A    between atoms: _164  and  _166
REMARK   68  A    between atoms: _166  and  _167
REMARK   69  A    between atoms: _166  and  _169
REMARK   70  A    between atoms: _169  and  _170
REMARK   71  A    between atoms: _172  and  _174
REMARK   72  A    between atoms: _174  and  _175
REMARK   73  A    between atoms: _174  and  _177
REMARK   74  A    between atoms: _177  and  _178
REMARK   75  A    between atoms: _183  and  _185
REMARK   76  A    between atoms: _185  and  _186
REMARK   77  A    between atoms: _185  and  _188
REMARK   78  A    between atoms: _188  and  _189
REMARK   79  A    between atoms: _192  and  _194
REMARK   80  A    between atoms: _194  and  _195
REMARK   81  A    between atoms: _194  and  _197
REMARK   82  A    between atoms: _199  and  _201
REMARK   83  A    between atoms: _201  and  _202
REMARK   84  A    between atoms: _204  and  _206
REMARK   85  A    between atoms: _206  and  _207
REMARK   86  A    between atoms: _206  and  _209
REMARK   87  A    between atoms: _209  and  _210
REMARK   88  A    between atoms: _213  and  _215
REMARK   89  A    between atoms: _215  and  _216
REMARK   90  A    between atoms: _215  and  _218
REMARK   91  A    between atoms: _218  and  _219
REMARK   92  A    between atoms: _222  and  _224
REMARK   93  A    between atoms: _224  and  _225
REMARK   94  A    between atoms: _224  and  _227
REMARK   95  A    between atoms: _227  and  _228
REMARK   96  A    between atoms: _230  and  _232
REMARK   97  A    between atoms: _232  and  _233
REMARK   98  A    between atoms: _232  and  _235
REMARK   99  A    between atoms: _237  and  _239
REMARK  100  A    between atoms: _239  and  _240
REMARK  101  A    between atoms: _239  and  _242
REMARK  102  A    between atoms: _242  and  _243
REMARK  103  A    between atoms: _245  and  _247
REMARK  104  A    between atoms: _247  and  _248
REMARK  105  A    between atoms: _247  and  _250
REMARK  106  A    between atoms: _250  and  _251
REMARK  107  A    between atoms: _253  and  _255
REMARK  108  A    between atoms: _255  and  _256
REMARK  109  A    between atoms: _255  and  _258
REMARK  110  A    between atoms: _258  and  _259
REMARK  111  A    between atoms: _264  and  _266
REMARK  112  A    between atoms: _266  and  _267
REMARK  113  A    between atoms: _266  and  _269
REMARK  114  A    between atoms: _269  and  _270
REMARK  115  A    between atoms: _275  and  _276
REMARK  116  A    between atoms: _278  and  _280
REMARK  117  A    between atoms: _280  and  _281
REMARK  118  A    between atoms: _280  and  _283
REMARK  119  A    between atoms: _283  and  _284
REMARK  120  A    between atoms: _287  and  _289
REMARK  121  A    between atoms: _289  and  _290
REMARK  122  A    between atoms: _289  and  _292
REMARK  123  A    between atoms: _292  and  _293
REMARK  124  A    between atoms: _296  and  _298
REMARK  125  A    between atoms: _298  and  _299
REMARK  126  A    between atoms: _298  and  _301
REMARK  127  A    between atoms: _301  and  _302
REMARK  128  A    between atoms: _302  and  _303
REMARK  129  A    between atoms: _303  and  _304
REMARK  130  A    between atoms: _313  and  _315
REMARK  131  A    between atoms: _315  and  _316
REMARK  132  A    between atoms: _315  and  _318
REMARK  133  A    between atoms: _318  and  _319
REMARK  134  A    between atoms: _323  and  _324
REMARK  135  A    between atoms: _329  and  _331
REMARK  136  A    between atoms: _331  and  _332
REMARK  137  A    between atoms: _331  and  _334
REMARK  138  A    between atoms: _334  and  _335
REMARK  139  A    between atoms: _335  and  _336
REMARK  140  A    between atoms: _336  and  _337
REMARK  141  A    between atoms: _346  and  _348
REMARK  142  A    between atoms: _348  and  _349
REMARK  143  A    between atoms: _348  and  _351
REMARK  144  A    between atoms: _351  and  _352
REMARK  145  A    between atoms: _352  and  _353
REMARK  146  A    between atoms: _356  and  _358
REMARK  147  A    between atoms: _358  and  _359
REMARK  148  A    between atoms: _358  and  _361
REMARK  149  A    between atoms: _364  and  _366
REMARK  150  A    between atoms: _366  and  _367
REMARK  151  A    between atoms: _366  and  _369
REMARK  152  A    between atoms: _369  and  _370
REMARK  153  A    between atoms: _375  and  _377
REMARK  154  A    between atoms: _377  and  _378
REMARK  155  A    between atoms: _377  and  _380
REMARK  156  A    between atoms: _380  and  _381
REMARK  157  A    between atoms: _383  and  _385
REMARK  158  A    between atoms: _385  and  _386
REMARK  159  A    between atoms: _385  and  _388
REMARK  160  A    between atoms: _388  and  _389
REMARK  161  A    between atoms: _399  and  _401
REMARK  162  A    between atoms: _401  and  _402
REMARK  163  A    between atoms: _401  and  _404
REMARK  164  A    between atoms: _404  and  _405
REMARK  165  A    between atoms: _408  and  _410
REMARK  166  A    between atoms: _410  and  _411
REMARK  167  A    between atoms: _413  and  _415
REMARK  168  A    between atoms: _415  and  _416
REMARK  169  A    between atoms: _415  and  _418
REMARK  170  A    between atoms: _418  and  _419
REMARK  171  A    between atoms: _424  and  _426
REMARK  172  A    between atoms: _426  and  _427
REMARK  173  A    between atoms: _426  and  _429
REMARK  174  A    between atoms: _429  and  _430
REMARK  175  A    between atoms: _433  and  _435
REMARK  176  A    between atoms: _435  and  _436
REMARK  177  A    between atoms: _435  and  _438
REMARK  178  A    between atoms: _438  and  _439
REMARK  179  A    between atoms: _442  and  _444
REMARK  180  A    between atoms: _444  and  _445
REMARK  181  A    between atoms: _444  and  _447
REMARK  182  A    between atoms: _447  and  _448
REMARK  183  A    between atoms: _448  and  _449
REMARK  184  A    between atoms: _451  and  _453
REMARK  185  A    between atoms: _453  and  _454
REMARK  186  A    between atoms: _453  and  _456
REMARK  187  A    between atoms: _456  and  _457
REMARK  188  A    between atoms: _463  and  _465
REMARK  189  A    between atoms: _465  and  _466
REMARK  190  A    between atoms: _470  and  _471
REMARK  191  A    between atoms: _476  and  _478
REMARK  192  A    between atoms: _478  and  _479
REMARK  193  A    between atoms: _478  and  _481
REMARK  194  A    between atoms: _481  and  _482
REMARK  195  A    between atoms: _485  and  _487
REMARK  196  A    between atoms: _487  and  _488
REMARK  197  A    between atoms: _487  and  _490
REMARK  198  A    between atoms: _490  and  _491
REMARK  199  A    between atoms: _501  and  _503
REMARK  200  A    between atoms: _503  and  _504
REMARK  201  A    between atoms: _503  and  _506
REMARK  202  A    between atoms: _508  and  _510
REMARK  203  A    between atoms: _510  and  _511
REMARK  204  A    between atoms: _510  and  _513
REMARK  205  A    between atoms: _513  and  _514
REMARK  206  A    between atoms: _514  and  _515
REMARK  207  A    between atoms: _518  and  _520
REMARK  208  A    between atoms: _520  and  _521
REMARK  209  A    between atoms: _520  and  _523
REMARK  210  A    between atoms: _523  and  _524
REMARK  211  A    between atoms: _527  and  _529
REMARK  212  A    between atoms: _529  and  _530
REMARK  213  A    between atoms: _529  and  _532
REMARK  214  A    between atoms: _532  and  _533
REMARK  215  A    between atoms: _538  and  _539
REMARK  216  A    between atoms: _541  and  _543
REMARK  217  A    between atoms: _543  and  _544
REMARK  218  A    between atoms: _546  and  _548
REMARK  219  A    between atoms: _548  and  _549
REMARK  220  A    between atoms: _552  and  _554
REMARK  221  A    between atoms: _554  and  _555
REMARK  222  A    between atoms: _554  and  _557
REMARK  223  A    between atoms: _559  and  _561
REMARK  224  A    between atoms: _561  and  _562
REMARK  225  A    between atoms: _561  and  _564
REMARK  226  A    between atoms: _564  and  _565
REMARK  227  A    between atoms: _570  and  _571
REMARK  228  A    between atoms: _573  and  _575
REMARK  229  A    between atoms: _575  and  _576
REMARK  230  A    between atoms: _575  and  _578
REMARK  231  A    between atoms: _578  and  _579
REMARK  232  A    between atoms: _584  and  _586
REMARK  233  A    between atoms: _586  and  _587
REMARK  234  A    between atoms: _586  and  _589
REMARK  235  A    between atoms: _589  and  _590
REMARK  236  A    between atoms: _596  and  _598
REMARK  237  A    between atoms: _598  and  _599
REMARK  238  A    between atoms: _602  and  _604
REMARK  239  A    between atoms: _604  and  _605
REMARK  240  A    between atoms: _607  and  _609
REMARK  241  A    between atoms: _609  and  _610
REMARK  242  A    between atoms: _609  and  _612
REMARK  243  A    between atoms: _612  and  _613
REMARK  244  A    between atoms: _618  and  _619
REMARK  245  A    between atoms: _621  and  _623
REMARK  246  A    between atoms: _623  and  _624
REMARK  247  A    between atoms: _623  and  _626
REMARK  248  A    between atoms: _626  and  _627
REMARK  249  A    between atoms: _629  and  _631
REMARK  250  A    between atoms: _631  and  _632
REMARK  251  A    between atoms: _634  and  _636
REMARK  252  A    between atoms: _636  and  _637
REMARK                            x       y       z     vdW  Elec       q    Type
REMARK                         _______ _______ _______ _____ _____    ______ ____
ROOT
ATOM      1  O   HOH     1      38.175  -1.057 -25.859  0.00  0.00    +0.000 OA
ENDROOT
TORSDOF 0
REMARK  Name = ../refined-set-2016/3hkw/3hkw_pocket.pdb
REMARK  252 active torsions:
REMARK  status: ('A' for Active; 'I' for Inactive)
REMARK    1  A    between atoms: _1  and  _3
REMARK    2  A    between atoms: _3  and  _4
REMARK    3  A    between atoms: _3  and  _6
REMARK    4  A    between atoms: _6  and  _7
REMARK    5  A    between atoms: _7  and  _8
REMARK    6  A    between atoms: _8  and  _9
REMARK    7  A    between atoms: _9  and  _10
REMARK    8  A    between atoms: _14  and  _16
REMARK    9  A    between atoms: _16  and  _17
REMARK   10  A    between atoms: _16  and  _19
REMARK   11  A    between atoms: _19  and  _20
REMARK   12  A    between atoms: _20  and  _21
REMARK   13  A    between atoms: _24  and  _26
REMARK   14  A    between atoms: _26  and  _27
REMARK   15  A    between atoms: _26  and  _29
REMARK   16  A    between atoms: _29  and  _30
REMARK   17  A    between atoms: _30  and  _31
REMARK   18  A    between atoms: _31  and  _32
REMARK   19  A    between atoms: _41  and  _43
REMARK   20  A    between atoms: _43  and  _44
REMARK   21  A    between atoms: _46  and  _48
REMARK   22  A    between atoms: _48  and  _49
REMARK   23  A    between atoms: _48  and  _51
REMARK   24  A    between atoms: _51  and  _52
REMARK   25  A    between atoms: _58  and  _60
REMARK   26  A    between atoms: _60  and  _61
REMARK   27  A    between atoms: _60  and  _63
REMARK   28  A    between atoms: _63  and  _64
REMARK   29  A    between atoms: _69  and  _70
REMARK   30  A    between atoms: _72  and  _74
REMARK   31  A    between atoms: _74  and  _75
REMARK   32  A    between atoms: _74  and  _77
REMARK   33  A    between atoms: _77  and  _78
REMARK   34  A    between atoms: _81  and  _82
REMARK   35  A    between atoms: _87  and  _89
REMARK   36  A    between atoms: _89  and  _90
REMARK   37  A    between atoms: _92  and  _94
REMARK   38  A    between atoms: _94  and  _95
REMARK   39  A    between atoms: _94  and  _97
REMARK   40  A    between atoms: _97  and  _98
REMARK   41  A    between atoms: _98  and  _99
REMARK   42  A    between atoms: _104  and  _106
REMARK   43  A    between atoms: _106  and  _107
REMARK   44  A    between atoms: _106  and  _109
REMARK   45  A    between atoms: _109  and  _110
REMARK   46  A    between atoms: _110  and  _111
REMARK   47  A    between atoms: _111  and  _112
REMARK   48  A    between atoms: _121  and  _123
REMARK   49  A    between atoms: _123  and  _124
REMARK   50  A    between atoms: _123  and  _126
REMARK   51  A    between atoms: _129  and  _131
REMARK   52  A    between atoms: _131  and  _132
REMARK   53  A    between atoms: _131  and  _134
REMARK   54  A    between atoms: _134  and  _135
REMARK   55  A    between atoms: _138  and  _140
REMARK   56  A    between atoms: _140  and  _141
REMARK   57  A    between atoms: _140  and  _143
REMARK   58  A    between atoms: _143  and  _144
REMARK   59  A    between atoms: _147  and  _149
REMARK   60  A    between atoms: _149  and  _150
REMARK   61  A    between atoms: _149  and  _152
REMARK   62  A    between atoms: _152  and  _153
REMARK   63  A    between atoms: _155  and  _157
REMARK   64  A    between atoms: _157  and  _158
REMARK   65  A    between atoms: _157  and  _160
REMARK   66  A    between atoms: _160  and  _161
REMARK   67  A    between atoms: _164  and  _166
REMARK   68  A    between atoms: _166  and  _167
REMARK   69  A    between atoms: _166  and  _169
REMARK   70  A    between atoms: _169  and  _170
REMARK   71  A    between atoms: _172  and  _174
REMARK   72  A    between atoms: _174  and  _175
REMARK   73  A    between atoms: _174  and  _177
REMARK   74  A    between atoms: _177  and  _178
REMARK   75  A    between atoms: _183  and  _185
REMARK   76  A    between atoms: _185  and  _186
REMARK   77  A    between atoms: _185  and  _188
REMARK   78  A    between atoms: _188  and  _189
REMARK   79  A    between atoms: _192  and  _194
REMARK   80  A    between atoms: _194  and  _195
REMARK   81  A    between atoms: _194  and  _197
REMARK   82  A    between atoms: _199  and  _201
REMARK   83  A    between atoms: _201  and  _202
REMARK   84  A    between atoms: _204  and  _206
REMARK   85  A    between atoms: _206  and  _207
REMARK   86  A    between atoms: _206  and  _209
REMARK   87  A    between atoms: _209  and  _210
REMARK   88  A    between atoms: _213  and  _215
REMARK   89  A    between atoms: _215  and  _216
REMARK   90  A    between atoms: _215  and  _218
REMARK   91  A    between atoms: _218  and  _219
REMARK   92  A    between atoms: _222  and  _224
REMARK   93  A    between atoms: _224  and  _225
REMARK   94  A    between atoms: _224  and  _227
REMARK   95  A    between atoms: _227  and  _228
REMARK   96  A    between atoms: _230  and  _232
REMARK   97  A    between atoms: _232  and  _233
REMARK   98  A    between atoms: _232  and  _235
REMARK   99  A    between atoms: _237  and  _239
REMARK  100  A    between atoms: _239  and  _240
REMARK  101  A    between atoms: _239  and  _242
REMARK  102  A    between atoms: _242  and  _243
REMARK  103  A    between atoms: _245  and  _247
REMARK  104  A    between atoms: _247  and  _248
REMARK  105  A    between atoms: _247  and  _250
REMARK  106  A    between atoms: _250  and  _251
REMARK  107  A    between atoms: _253  and  _255
REMARK  108  A    between atoms: _255  and  _256
REMARK  109  A    between atoms: _255  and  _258
REMARK  110  A    between atoms: _258  and  _259
REMARK  111  A    between atoms: _264  and  _266
REMARK  112  A    between atoms: _266  and  _267
REMARK  113  A    between atoms: _266  and  _269
REMARK  114  A    between atoms: _269  and  _270
REMARK  115  A    between atoms: _275  and  _276
REMARK  116  A    between atoms: _278  and  _280
REMARK  117  A    between atoms: _280  and  _281
REMARK  118  A    between atoms: _280  and  _283
REMARK  119  A    between atoms: _283  and  _284
REMARK  120  A    between atoms: _287  and  _289
REMARK  121  A    between atoms: _289  and  _290
REMARK  122  A    between atoms: _289  and  _292
REMARK  123  A    between atoms: _292  and  _293
REMARK  124  A    between atoms: _296  and  _298
REMARK  125  A    between atoms: _298  and  _299
REMARK  126  A    between atoms: _298  and  _301
REMARK  127  A    between atoms: _301  and  _302
REMARK  128  A    between atoms: _302  and  _303
REMARK  129  A    between atoms: _303  and  _304
REMARK  130  A    between atoms: _313  and  _315
REMARK  131  A    between atoms: _315  and  _316
REMARK  132  A    between atoms: _315  and  _318
REMARK  133  A    between atoms: _318  and  _319
REMARK  134  A    between atoms: _323  and  _324
REMARK  135  A    between atoms: _329  and  _331
REMARK  136  A    between atoms: _331  and  _332
REMARK  137  A    between atoms: _331  and  _334
REMARK  138  A    between atoms: _334  and  _335
REMARK  139  A    between atoms: _335  and  _336
REMARK  140  A    between atoms: _336  and  _337
REMARK  141  A    between atoms: _346  and  _348
REMARK  142  A    between atoms: _348  and  _349
REMARK  143  A    between atoms: _348  and  _351
REMARK  144  A    between atoms: _351  and  _352
REMARK  145  A    between atoms: _352  and  _353
REMARK  146  A    between atoms: _356  and  _358
REMARK  147  A    between atoms: _358  and  _359
REMARK  148  A    between atoms: _358  and  _361
REMARK  149  A    between atoms: _364  and  _366
REMARK  150  A    between atoms: _366  and  _367
REMARK  151  A    between atoms: _366  and  _369
REMARK  152  A    between atoms: _369  and  _370
REMARK  153  A    between atoms: _375  and  _377
REMARK  154  A    between atoms: _377  and  _378
REMARK  155  A    between atoms: _377  and  _380
REMARK  156  A    between atoms: _380  and  _381
REMARK  157  A    between atoms: _383  and  _385
REMARK  158  A    between atoms: _385  and  _386
REMARK  159  A    between atoms: _385  and  _388
REMARK  160  A    between atoms: _388  and  _389
REMARK  161  A    between atoms: _399  and  _401
REMARK  162  A    between atoms: _401  and  _402
REMARK  163  A    between atoms: _401  and  _404
REMARK  164  A    between atoms: _404  and  _405
REMARK  165  A    between atoms: _408  and  _410
REMARK  166  A    between atoms: _410  and  _411
REMARK  167  A    between atoms: _413  and  _415
REMARK  168  A    between atoms: _415  and  _416
REMARK  169  A    between atoms: _415  and  _418
REMARK  170  A    between atoms: _418  and  _419
REMARK  171  A    between atoms: _424  and  _426
REMARK  172  A    between atoms: _426  and  _427
REMARK  173  A    between atoms: _426  and  _429
REMARK  174  A    between atoms: _429  and  _430
REMARK  175  A    between atoms: _433  and  _435
REMARK  176  A    between atoms: _435  and  _436
REMARK  177  A    between atoms: _435  and  _438
REMARK  178  A    between atoms: _438  and  _439
REMARK  179  A    between atoms: _442  and  _444
REMARK  180  A    between atoms: _444  and  _445
REMARK  181  A    between atoms: _444  and  _447
REMARK  182  A    between atoms: _447  and  _448
REMARK  183  A    between atoms: _448  and  _449
REMARK  184  A    between atoms: _451  and  _453
REMARK  185  A    between atoms: _453  and  _454
REMARK  186  A    between atoms: _453  and  _456
REMARK  187  A    between atoms: _456  and  _457
REMARK  188  A    between atoms: _463  and  _465
REMARK  189  A    between atoms: _465  and  _466
REMARK  190  A    between atoms: _470  and  _471
REMARK  191  A    between atoms: _476  and  _478
REMARK  192  A    between atoms: _478  and  _479
REMARK  193  A    between atoms: _478  and  _481
REMARK  194  A    between atoms: _481  and  _482
REMARK  195  A    between atoms: _485  and  _487
REMARK  196  A    between atoms: _487  and  _488
REMARK  197  A    between atoms: _487  and  _490
REMARK  198  A    between atoms: _490  and  _491
REMARK  199  A    between atoms: _501  and  _503
REMARK  200  A    between atoms: _503  and  _504
REMARK  201  A    between atoms: _503  and  _506
REMARK  202  A    between atoms: _508  and  _510
REMARK  203  A    between atoms: _510  and  _511
REMARK  204  A    between atoms: _510  and  _513
REMARK  205  A    between atoms: _513  and  _514
REMARK  206  A    between atoms: _514  and  _515
REMARK  207  A    between atoms: _518  and  _520
REMARK  208  A    between atoms: _520  and  _521
REMARK  209  A    between atoms: _520  and  _523
REMARK  210  A    between atoms: _523  and  _524
REMARK  211  A    between atoms: _527  and  _529
REMARK  212  A    between atoms: _529  and  _530
REMARK  213  A    between atoms: _529  and  _532
REMARK  214  A    between atoms: _532  and  _533
REMARK  215  A    between atoms: _538  and  _539
REMARK  216  A    between atoms: _541  and  _543
REMARK  217  A    between atoms: _543  and  _544
REMARK  218  A    between atoms: _546  and  _548
REMARK  219  A    between atoms: _548  and  _549
REMARK  220  A    between atoms: _552  and  _554
REMARK  221  A    between atoms: _554  and  _555
REMARK  222  A    between atoms: _554  and  _557
REMARK  223  A    between atoms: _559  and  _561
REMARK  224  A    between atoms: _561  and  _562
REMARK  225  A    between atoms: _561  and  _564
REMARK  226  A    between atoms: _564  and  _565
REMARK  227  A    between atoms: _570  and  _571
REMARK  228  A    between atoms: _573  and  _575
REMARK  229  A    between atoms: _575  and  _576
REMARK  230  A    between atoms: _575  and  _578
REMARK  231  A    between atoms: _578  and  _579
REMARK  232  A    between atoms: _584  and  _586
REMARK  233  A    between atoms: _586  and  _587
REMARK  234  A    between atoms: _586  and  _589
REMARK  235  A    between atoms: _589  and  _590
REMARK  236  A    between atoms: _596  and  _598
REMARK  237  A    between atoms: _598  and  _599
REMARK  238  A    between atoms: _602  and  _604
REMARK  239  A    between atoms: _604  and  _605
REMARK  240  A    between atoms: _607  and  _609
REMARK  241  A    between atoms: _609  and  _610
REMARK  242  A    between atoms: _609  and  _612
REMARK  243  A    between atoms: _612  and  _613
REMARK  244  A    between atoms: _618  and  _619
REMARK  245  A    between atoms: _621  and  _623
REMARK  246  A    between atoms: _623  and  _624
REMARK  247  A    between atoms: _623  and  _626
REMARK  248  A    between atoms: _626  and  _627
REMARK  249  A    between atoms: _629  and  _631
REMARK  250  A    between atoms: _631  and  _632
REMARK  251  A    between atoms: _634  and  _636
REMARK  252  A    between atoms: _636  and  _637
REMARK                            x       y       z     vdW  Elec       q    Type
REMARK                         _______ _______ _______ _____ _____    ______ ____
ROOT
ATOM      1  O   HOH     1      40.112   0.061 -10.281  0.00  0.00    +0.000 OA
ENDROOT
TORSDOF 0
REMARK  Name = ../refined-set-2016/3hkw/3hkw_pocket.pdb
REMARK  252 active torsions:
REMARK  status: ('A' for Active; 'I' for Inactive)
REMARK    1  A    between atoms: _1  and  _3
REMARK    2  A    between atoms: _3  and  _4
REMARK    3  A    between atoms: _3  and  _6
REMARK    4  A    between atoms: _6  and  _7
REMARK    5  A    between atoms: _7  and  _8
REMARK    6  A    between atoms: _8  and  _9
REMARK    7  A    between atoms: _9  and  _10
REMARK    8  A    between atoms: _14  and  _16
REMARK    9  A    between atoms: _16  and  _17
REMARK   10  A    between atoms: _16  and  _19
REMARK   11  A    between atoms: _19  and  _20
REMARK   12  A    between atoms: _20  and  _21
REMARK   13  A    between atoms: _24  and  _26
REMARK   14  A    between atoms: _26  and  _27
REMARK   15  A    between atoms: _26  and  _29
REMARK   16  A    between atoms: _29  and  _30
REMARK   17  A    between atoms: _30  and  _31
REMARK   18  A    between atoms: _31  and  _32
REMARK   19  A    between atoms: _41  and  _43
REMARK   20  A    between atoms: _43  and  _44
REMARK   21  A    between atoms: _46  and  _48
REMARK   22  A    between atoms: _48  and  _49
REMARK   23  A    between atoms: _48  and  _51
REMARK   24  A    between atoms: _51  and  _52
REMARK   25  A    between atoms: _58  and  _60
REMARK   26  A    between atoms: _60  and  _61
REMARK   27  A    between atoms: _60  and  _63
REMARK   28  A    between atoms: _63  and  _64
REMARK   29  A    between atoms: _69  and  _70
REMARK   30  A    between atoms: _72  and  _74
REMARK   31  A    between atoms: _74  and  _75
REMARK   32  A    between atoms: _74  and  _77
REMARK   33  A    between atoms: _77  and  _78
REMARK   34  A    between atoms: _81  and  _82
REMARK   35  A    between atoms: _87  and  _89
REMARK   36  A    between atoms: _89  and  _90
REMARK   37  A    between atoms: _92  and  _94
REMARK   38  A    between atoms: _94  and  _95
REMARK   39  A    between atoms: _94  and  _97
REMARK   40  A    between atoms: _97  and  _98
REMARK   41  A    between atoms: _98  and  _99
REMARK   42  A    between atoms: _104  and  _106
REMARK   43  A    between atoms: _106  and  _107
REMARK   44  A    between atoms: _106  and  _109
REMARK   45  A    between atoms: _109  and  _110
REMARK   46  A    between atoms: _110  and  _111
REMARK   47  A    between atoms: _111  and  _112
REMARK   48  A    between atoms: _121  and  _123
REMARK   49  A    between atoms: _123  and  _124
REMARK   50  A    between atoms: _123  and  _126
REMARK   51  A    between atoms: _129  and  _131
REMARK   52  A    between atoms: _131  and  _132
REMARK   53  A    between atoms: _131  and  _134
REMARK   54  A    between atoms: _134  and  _135
REMARK   55  A    between atoms: _138  and  _140
REMARK   56  A    between atoms: _140  and  _141
REMARK   57  A    between atoms: _140  and  _143
REMARK   58  A    between atoms: _143  and  _144
REMARK   59  A    between atoms: _147  and  _149
REMARK   60  A    between atoms: _149  and  _150
REMARK   61  A    between atoms: _149  and  _152
REMARK   62  A    between atoms: _152  and  _153
REMARK   63  A    between atoms: _155  and  _157
REMARK   64  A    between atoms: _157  and  _158
REMARK   65  A    between atoms: _157  and  _160
REMARK   66  A    between atoms: _160  and  _161
REMARK   67  A    between atoms: _164  and  _166
REMARK   68  A    between atoms: _166  and  _167
REMARK   69  A    between atoms: _166  and  _169
REMARK   70  A    between atoms: _169  and  _170
REMARK   71  A    between atoms: _172  and  _174
REMARK   72  A    between atoms: _174  and  _175
REMARK   73  A    between atoms: _174  and  _177
REMARK   74  A    between atoms: _177  and  _178
REMARK   75  A    between atoms: _183  and  _185
REMARK   76  A    between atoms: _185  and  _186
REMARK   77  A    between atoms: _185  and  _188
REMARK   78  A    between atoms: _188  and  _189
REMARK   79  A    between atoms: _192  and  _194
REMARK   80  A    between atoms: _194  and  _195
REMARK   81  A    between atoms: _194  and  _197
REMARK   82  A    between atoms: _199  and  _201
REMARK   83  A    between atoms: _201  and  _202
REMARK   84  A    between atoms: _204  and  _206
REMARK   85  A    between atoms: _206  and  _207
REMARK   86  A    between atoms: _206  and  _209
REMARK   87  A    between atoms: _209  and  _210
REMARK   88  A    between atoms: _213  and  _215
REMARK   89  A    between atoms: _215  and  _216
REMARK   90  A    between atoms: _215  and  _218
REMARK   91  A    between atoms: _218  and  _219
REMARK   92  A    between atoms: _222  and  _224
REMARK   93  A    between atoms: _224  and  _225
REMARK   94  A    between atoms: _224  and  _227
REMARK   95  A    between atoms: _227  and  _228
REMARK   96  A    between atoms: _230  and  _232
REMARK   97  A    between atoms: _232  and  _233
REMARK   98  A    between atoms: _232  and  _235
REMARK   99  A    between atoms: _237  and  _239
REMARK  100  A    between atoms: _239  and  _240
REMARK  101  A    between atoms: _239  and  _242
REMARK  102  A    between atoms: _242  and  _243
REMARK  103  A    between atoms: _245  and  _247
REMARK  104  A    between atoms: _247  and  _248
REMARK  105  A    between atoms: _247  and  _250
REMARK  106  A    between atoms: _250  and  _251
REMARK  107  A    between atoms: _253  and  _255
REMARK  108  A    between atoms: _255  and  _256
REMARK  109  A    between atoms: _255  and  _258
REMARK  110  A    between atoms: _258  and  _259
REMARK  111  A    between atoms: _264  and  _266
REMARK  112  A    between atoms: _266  and  _267
REMARK  113  A    between atoms: _266  and  _269
REMARK  114  A    between atoms: _269  and  _270
REMARK  115  A    between atoms: _275  and  _276
REMARK  116  A    between atoms: _278  and  _280
REMARK  117  A    between atoms: _280  and  _281
REMARK  118  A    between atoms: _280  and  _283
REMARK  119  A    between atoms: _283  and  _284
REMARK  120  A    between atoms: _287  and  _289
REMARK  121  A    between atoms: _289  and  _290
REMARK  122  A    between atoms: _289  and  _292
REMARK  123  A    between atoms: _292  and  _293
REMARK  124  A    between atoms: _296  and  _298
REMARK  125  A    between atoms: _298  and  _299
REMARK  126  A    between atoms: _298  and  _301
REMARK  127  A    between atoms: _301  and  _302
REMARK  128  A    between atoms: _302  and  _303
REMARK  129  A    between atoms: _303  and  _304
REMARK  130  A    between atoms: _313  and  _315
REMARK  131  A    between atoms: _315  and  _316
REMARK  132  A    between atoms: _315  and  _318
REMARK  133  A    between atoms: _318  and  _319
REMARK  134  A    between atoms: _323  and  _324
REMARK  135  A    between atoms: _329  and  _331
REMARK  136  A    between atoms: _331  and  _332
REMARK  137  A    between atoms: _331  and  _334
REMARK  138  A    between atoms: _334  and  _335
REMARK  139  A    between atoms: _335  and  _336
REMARK  140  A    between atoms: _336  and  _337
REMARK  141  A    between atoms: _346  and  _348
REMARK  142  A    between atoms: _348  and  _349
REMARK  143  A    between atoms: _348  and  _351
REMARK  144  A    between atoms: _351  and  _352
REMARK  145  A    between atoms: _352  and  _353
REMARK  146  A    between atoms: _356  and  _358
REMARK  147  A    between atoms: _358  and  _359
REMARK  148  A    between atoms: _358  and  _361
REMARK  149  A    between atoms: _364  and  _366
REMARK  150  A    between atoms: _366  and  _367
REMARK  151  A    between atoms: _366  and  _369
REMARK  152  A    between atoms: _369  and  _370
REMARK  153  A    between atoms: _375  and  _377
REMARK  154  A    between atoms: _377  and  _378
REMARK  155  A    between atoms: _377  and  _380
REMARK  156  A    between atoms: _380  and  _381
REMARK  157  A    between atoms: _383  and  _385
REMARK  158  A    between atoms: _385  and  _386
REMARK  159  A    between atoms: _385  and  _388
REMARK  160  A    between atoms: _388  and  _389
REMARK  161  A    between atoms: _399  and  _401
REMARK  162  A    between atoms: _401  and  _402
REMARK  163  A    between atoms: _401  and  _404
REMARK  164  A    between atoms: _404  and  _405
REMARK  165  A    between atoms: _408  and  _410
REMARK  166  A    between atoms: _410  and  _411
REMARK  167  A    between atoms: _413  and  _415
REMARK  168  A    between atoms: _415  and  _416
REMARK  169  A    between atoms: _415  and  _418
REMARK  170  A    between atoms: _418  and  _419
REMARK  171  A    between atoms: _424  and  _426
REMARK  172  A    between atoms: _426  and  _427
REMARK  173  A    between atoms: _426  and  _429
REMARK  174  A    between atoms: _429  and  _430
REMARK  175  A    between atoms: _433  and  _435
REMARK  176  A    between atoms: _435  and  _436
REMARK  177  A    between atoms: _435  and  _438
REMARK  178  A    between atoms: _438  and  _439
REMARK  179  A    between atoms: _442  and  _444
REMARK  180  A    between atoms: _444  and  _445
REMARK  181  A    between atoms: _444  and  _447
REMARK  182  A    between atoms: _447  and  _448
REMARK  183  A    between atoms: _448  and  _449
REMARK  184  A    between atoms: _451  and  _453
REMARK  185  A    between atoms: _453  and  _454
REMARK  186  A    between atoms: _453  and  _456
REMARK  187  A    between atoms: _456  and  _457
REMARK  188  A    between atoms: _463  and  _465
REMARK  189  A    between atoms: _465  and  _466
REMARK  190  A    between atoms: _470  and  _471
REMARK  191  A    between atoms: _476  and  _478
REMARK  192  A    between atoms: _478  and  _479
REMARK  193  A    between atoms: _478  and  _481
REMARK  194  A    between atoms: _481  and  _482
REMARK  195  A    between atoms: _485  and  _487
REMARK  196  A    between atoms: _487  and  _488
REMARK  197  A    between atoms: _487  and  _490
REMARK  198  A    between atoms: _490  and  _491
REMARK  199  A    between atoms: _501  and  _503
REMARK  200  A    between atoms: _503  and  _504
REMARK  201  A    between atoms: _503  and  _506
REMARK  202  A    between atoms: _508  and  _510
REMARK  203  A    between atoms: _510  and  _511
REMARK  204  A    between atoms: _510  and  _513
REMARK  205  A    between atoms: _513  and  _514
REMARK  206  A    between atoms: _514  and  _515
REMARK  207  A    between atoms: _518  and  _520
REMARK  208  A    between atoms: _520  and  _521
REMARK  209  A    between atoms: _520  and  _523
REMARK  210  A    between atoms: _523  and  _524
REMARK  211  A    between atoms: _527  and  _529
REMARK  212  A    between atoms: _529  and  _530
REMARK  213  A    between atoms: _529  and  _532
REMARK  214  A    between atoms: _532  and  _533
REMARK  215  A    between atoms: _538  and  _539
REMARK  216  A    between atoms: _541  and  _543
REMARK  217  A    between atoms: _543  and  _544
REMARK  218  A    between atoms: _546  and  _548
REMARK  219  A    between atoms: _548  and  _549
REMARK  220  A    between atoms: _552  and  _554
REMARK  221  A    between atoms: _554  and  _555
REMARK  222  A    between atoms: _554  and  _557
REMARK  223  A    between atoms: _559  and  _561
REMARK  224  A    between atoms: _561  and  _562
REMARK  225  A    between atoms: _561  and  _564
REMARK  226  A    between atoms: _564  and  _565
REMARK  227  A    between atoms: _570  and  _571
REMARK  228  A    between atoms: _573  and  _575
REMARK  229  A    between atoms: _575  and  _576
REMARK  230  A    between atoms: _575  and  _578
REMARK  231  A    between atoms: _578  and  _579
REMARK  232  A    between atoms: _584  and  _586
REMARK  233  A    between atoms: _586  and  _587
REMARK  234  A    between atoms: _586  and  _589
REMARK  235  A    between atoms: _589  and  _590
REMARK  236  A    between atoms: _596  and  _598
REMARK  237  A    between atoms: _598  and  _599
REMARK  238  A    between atoms: _602  and  _604
REMARK  239  A    between atoms: _604  and  _605
REMARK  240  A    between atoms: _607  and  _609
REMARK  241  A    between atoms: _609  and  _610
REMARK  242  A    between atoms: _609  and  _612
REMARK  243  A    between atoms: _612  and  _613
REMARK  244  A    between atoms: _618  and  _619
REMARK  245  A    between atoms: _621  and  _623
REMARK  246  A    between atoms: _623  and  _624
REMARK  247  A    between atoms: _623  and  _626
REMARK  248  A    between atoms: _626  and  _627
REMARK  249  A    between atoms: _629  and  _631
REMARK  250  A    between atoms: _631  and  _632
REMARK  251  A    between atoms: _634  and  _636
REMARK  252  A    between atoms: _636  and  _637
REMARK                            x       y       z     vdW  Elec       q    Type
REMARK                         _______ _______ _______ _____ _____    ______ ____
ROOT
ATOM      1  O   HOH     1      27.158  -1.144 -14.814  0.00  0.00    +0.000 OA
ENDROOT
TORSDOF 0
REMARK  Name = ../refined-set-2016/3hkw/3hkw_pocket.pdb
REMARK  252 active torsions:
REMARK  status: ('A' for Active; 'I' for Inactive)
REMARK    1  A    between atoms: _1  and  _3
REMARK    2  A    between atoms: _3  and  _4
REMARK    3  A    between atoms: _3  and  _6
REMARK    4  A    between atoms: _6  and  _7
REMARK    5  A    between atoms: _7  and  _8
REMARK    6  A    between atoms: _8  and  _9
REMARK    7  A    between atoms: _9  and  _10
REMARK    8  A    between atoms: _14  and  _16
REMARK    9  A    between atoms: _16  and  _17
REMARK   10  A    between atoms: _16  and  _19
REMARK   11  A    between atoms: _19  and  _20
REMARK   12  A    between atoms: _20  and  _21
REMARK   13  A    between atoms: _24  and  _26
REMARK   14  A    between atoms: _26  and  _27
REMARK   15  A    between atoms: _26  and  _29
REMARK   16  A    between atoms: _29  and  _30
REMARK   17  A    between atoms: _30  and  _31
REMARK   18  A    between atoms: _31  and  _32
REMARK   19  A    between atoms: _41  and  _43
REMARK   20  A    between atoms: _43  and  _44
REMARK   21  A    between atoms: _46  and  _48
REMARK   22  A    between atoms: _48  and  _49
REMARK   23  A    between atoms: _48  and  _51
REMARK   24  A    between atoms: _51  and  _52
REMARK   25  A    between atoms: _58  and  _60
REMARK   26  A    between atoms: _60  and  _61
REMARK   27  A    between atoms: _60  and  _63
REMARK   28  A    between atoms: _63  and  _64
REMARK   29  A    between atoms: _69  and  _70
REMARK   30  A    between atoms: _72  and  _74
REMARK   31  A    between atoms: _74  and  _75
REMARK   32  A    between atoms: _74  and  _77
REMARK   33  A    between atoms: _77  and  _78
REMARK   34  A    between atoms: _81  and  _82
REMARK   35  A    between atoms: _87  and  _89
REMARK   36  A    between atoms: _89  and  _90
REMARK   37  A    between atoms: _92  and  _94
REMARK   38  A    between atoms: _94  and  _95
REMARK   39  A    between atoms: _94  and  _97
REMARK   40  A    between atoms: _97  and  _98
REMARK   41  A    between atoms: _98  and  _99
REMARK   42  A    between atoms: _104  and  _106
REMARK   43  A    between atoms: _106  and  _107
REMARK   44  A    between atoms: _106  and  _109
REMARK   45  A    between atoms: _109  and  _110
REMARK   46  A    between atoms: _110  and  _111
REMARK   47  A    between atoms: _111  and  _112
REMARK   48  A    between atoms: _121  and  _123
REMARK   49  A    between atoms: _123  and  _124
REMARK   50  A    between atoms: _123  and  _126
REMARK   51  A    between atoms: _129  and  _131
REMARK   52  A    between atoms: _131  and  _132
REMARK   53  A    between atoms: _131  and  _134
REMARK   54  A    between atoms: _134  and  _135
REMARK   55  A    between atoms: _138  and  _140
REMARK   56  A    between atoms: _140  and  _141
REMARK   57  A    between atoms: _140  and  _143
REMARK   58  A    between atoms: _143  and  _144
REMARK   59  A    between atoms: _147  and  _149
REMARK   60  A    between atoms: _149  and  _150
REMARK   61  A    between atoms: _149  and  _152
REMARK   62  A    between atoms: _152  and  _153
REMARK   63  A    between atoms: _155  and  _157
REMARK   64  A    between atoms: _157  and  _158
REMARK   65  A    between atoms: _157  and  _160
REMARK   66  A    between atoms: _160  and  _161
REMARK   67  A    between atoms: _164  and  _166
REMARK   68  A    between atoms: _166  and  _167
REMARK   69  A    between atoms: _166  and  _169
REMARK   70  A    between atoms: _169  and  _170
REMARK   71  A    between atoms: _172  and  _174
REMARK   72  A    between atoms: _174  and  _175
REMARK   73  A    between atoms: _174  and  _177
REMARK   74  A    between atoms: _177  and  _178
REMARK   75  A    between atoms: _183  and  _185
REMARK   76  A    between atoms: _185  and  _186
REMARK   77  A    between atoms: _185  and  _188
REMARK   78  A    between atoms: _188  and  _189
REMARK   79  A    between atoms: _192  and  _194
REMARK   80  A    between atoms: _194  and  _195
REMARK   81  A    between atoms: _194  and  _197
REMARK   82  A    between atoms: _199  and  _201
REMARK   83  A    between atoms: _201  and  _202
REMARK   84  A    between atoms: _204  and  _206
REMARK   85  A    between atoms: _206  and  _207
REMARK   86  A    between atoms: _206  and  _209
REMARK   87  A    between atoms: _209  and  _210
REMARK   88  A    between atoms: _213  and  _215
REMARK   89  A    between atoms: _215  and  _216
REMARK   90  A    between atoms: _215  and  _218
REMARK   91  A    between atoms: _218  and  _219
REMARK   92  A    between atoms: _222  and  _224
REMARK   93  A    between atoms: _224  and  _225
REMARK   94  A    between atoms: _224  and  _227
REMARK   95  A    between atoms: _227  and  _228
REMARK   96  A    between atoms: _230  and  _232
REMARK   97  A    between atoms: _232  and  _233
REMARK   98  A    between atoms: _232  and  _235
REMARK   99  A    between atoms: _237  and  _239
REMARK  100  A    between atoms: _239  and  _240
REMARK  101  A    between atoms: _239  and  _242
REMARK  102  A    between atoms: _242  and  _243
REMARK  103  A    between atoms: _245  and  _247
REMARK  104  A    between atoms: _247  and  _248
REMARK  105  A    between atoms: _247  and  _250
REMARK  106  A    between atoms: _250  and  _251
REMARK  107  A    between atoms: _253  and  _255
REMARK  108  A    between atoms: _255  and  _256
REMARK  109  A    between atoms: _255  and  _258
REMARK  110  A    between atoms: _258  and  _259
REMARK  111  A    between atoms: _264  and  _266
REMARK  112  A    between atoms: _266  and  _267
REMARK  113  A    between atoms: _266  and  _269
REMARK  114  A    between atoms: _269  and  _270
REMARK  115  A    between atoms: _275  and  _276
REMARK  116  A    between atoms: _278  and  _280
REMARK  117  A    between atoms: _280  and  _281
REMARK  118  A    between atoms: _280  and  _283
REMARK  119  A    between atoms: _283  and  _284
REMARK  120  A    between atoms: _287  and  _289
REMARK  121  A    between atoms: _289  and  _290
REMARK  122  A    between atoms: _289  and  _292
REMARK  123  A    between atoms: _292  and  _293
REMARK  124  A    between atoms: _296  and  _298
REMARK  125  A    between atoms: _298  and  _299
REMARK  126  A    between atoms: _298  and  _301
REMARK  127  A    between atoms: _301  and  _302
REMARK  128  A    between atoms: _302  and  _303
REMARK  129  A    between atoms: _303  and  _304
REMARK  130  A    between atoms: _313  and  _315
REMARK  131  A    between atoms: _315  and  _316
REMARK  132  A    between atoms: _315  and  _318
REMARK  133  A    between atoms: _318  and  _319
REMARK  134  A    between atoms: _323  and  _324
REMARK  135  A    between atoms: _329  and  _331
REMARK  136  A    between atoms: _331  and  _332
REMARK  137  A    between atoms: _331  and  _334
REMARK  138  A    between atoms: _334  and  _335
REMARK  139  A    between atoms: _335  and  _336
REMARK  140  A    between atoms: _336  and  _337
REMARK  141  A    between atoms: _346  and  _348
REMARK  142  A    between atoms: _348  and  _349
REMARK  143  A    between atoms: _348  and  _351
REMARK  144  A    between atoms: _351  and  _352
REMARK  145  A    between atoms: _352  and  _353
REMARK  146  A    between atoms: _356  and  _358
REMARK  147  A    between atoms: _358  and  _359
REMARK  148  A    between atoms: _358  and  _361
REMARK  149  A    between atoms: _364  and  _366
REMARK  150  A    between atoms: _366  and  _367
REMARK  151  A    between atoms: _366  and  _369
REMARK  152  A    between atoms: _369  and  _370
REMARK  153  A    between atoms: _375  and  _377
REMARK  154  A    between atoms: _377  and  _378
REMARK  155  A    between atoms: _377  and  _380
REMARK  156  A    between atoms: _380  and  _381
REMARK  157  A    between atoms: _383  and  _385
REMARK  158  A    between atoms: _385  and  _386
REMARK  159  A    between atoms: _385  and  _388
REMARK  160  A    between atoms: _388  and  _389
REMARK  161  A    between atoms: _399  and  _401
REMARK  162  A    between atoms: _401  and  _402
REMARK  163  A    between atoms: _401  and  _404
REMARK  164  A    between atoms: _404  and  _405
REMARK  165  A    between atoms: _408  and  _410
REMARK  166  A    between atoms: _410  and  _411
REMARK  167  A    between atoms: _413  and  _415
REMARK  168  A    between atoms: _415  and  _416
REMARK  169  A    between atoms: _415  and  _418
REMARK  170  A    between atoms: _418  and  _419
REMARK  171  A    between atoms: _424  and  _426
REMARK  172  A    between atoms: _426  and  _427
REMARK  173  A    between atoms: _426  and  _429
REMARK  174  A    between atoms: _429  and  _430
REMARK  175  A    between atoms: _433  and  _435
REMARK  176  A    between atoms: _435  and  _436
REMARK  177  A    between atoms: _435  and  _438
REMARK  178  A    between atoms: _438  and  _439
REMARK  179  A    between atoms: _442  and  _444
REMARK  180  A    between atoms: _444  and  _445
REMARK  181  A    between atoms: _444  and  _447
REMARK  182  A    between atoms: _447  and  _448
REMARK  183  A    between atoms: _448  and  _449
REMARK  184  A    between atoms: _451  and  _453
REMARK  185  A    between atoms: _453  and  _454
REMARK  186  A    between atoms: _453  and  _456
REMARK  187  A    between atoms: _456  and  _457
REMARK  188  A    between atoms: _463  and  _465
REMARK  189  A    between atoms: _465  and  _466
REMARK  190  A    between atoms: _470  and  _471
REMARK  191  A    between atoms: _476  and  _478
REMARK  192  A    between atoms: _478  and  _479
REMARK  193  A    between atoms: _478  and  _481
REMARK  194  A    between atoms: _481  and  _482
REMARK  195  A    between atoms: _485  and  _487
REMARK  196  A    between atoms: _487  and  _488
REMARK  197  A    between atoms: _487  and  _490
REMARK  198  A    between atoms: _490  and  _491
REMARK  199  A    between atoms: _501  and  _503
REMARK  200  A    between atoms: _503  and  _504
REMARK  201  A    between atoms: _503  and  _506
REMARK  202  A    between atoms: _508  and  _510
REMARK  203  A    between atoms: _510  and  _511
REMARK  204  A    between atoms: _510  and  _513
REMARK  205  A    between atoms: _513  and  _514
REMARK  206  A    between atoms: _514  and  _515
REMARK  207  A    between atoms: _518  and  _520
REMARK  208  A    between atoms: _520  and  _521
REMARK  209  A    between atoms: _520  and  _523
REMARK  210  A    between atoms: _523  and  _524
REMARK  211  A    between atoms: _527  and  _529
REMARK  212  A    between atoms: _529  and  _530
REMARK  213  A    between atoms: _529  and  _532
REMARK  214  A    between atoms: _532  and  _533
REMARK  215  A    between atoms: _538  and  _539
REMARK  216  A    between atoms: _541  and  _543
REMARK  217  A    between atoms: _543  and  _544
REMARK  218  A    between atoms: _546  and  _548
REMARK  219  A    between atoms: _548  and  _549
REMARK  220  A    between atoms: _552  and  _554
REMARK  221  A    between atoms: _554  and  _555
REMARK  222  A    between atoms: _554  and  _557
REMARK  223  A    between atoms: _559  and  _561
REMARK  224  A    between atoms: _561  and  _562
REMARK  225  A    between atoms: _561  and  _564
REMARK  226  A    between atoms: _564  and  _565
REMARK  227  A    between atoms: _570  and  _571
REMARK  228  A    between atoms: _573  and  _575
REMARK  229  A    between atoms: _575  and  _576
REMARK  230  A    between atoms: _575  and  _578
REMARK  231  A    between atoms: _578  and  _579
REMARK  232  A    between atoms: _584  and  _586
REMARK  233  A    between atoms: _586  and  _587
REMARK  234  A    between atoms: _586  and  _589
REMARK  235  A    between atoms: _589  and  _590
REMARK  236  A    between atoms: _596  and  _598
REMARK  237  A    between atoms: _598  and  _599
REMARK  238  A    between atoms: _602  and  _604
REMARK  239  A    between atoms: _604  and  _605
REMARK  240  A    between atoms: _607  and  _609
REMARK  241  A    between atoms: _609  and  _610
REMARK  242  A    between atoms: _609  and  _612
REMARK  243  A    between atoms: _612  and  _613
REMARK  244  A    between atoms: _618  and  _619
REMARK  245  A    between atoms: _621  and  _623
REMARK  246  A    between atoms: _623  and  _624
REMARK  247  A    between atoms: _623  and  _626
REMARK  248  A    between atoms: _626  and  _627
REMARK  249  A    between atoms: _629  and  _631
REMARK  250  A    between atoms: _631  and  _632
REMARK  251  A    between atoms: _634  and  _636
REMARK  252  A    between atoms: _636  and  _637
REMARK                            x       y       z     vdW  Elec       q    Type
REMARK                         _______ _______ _______ _____ _____    ______ ____
ROOT
ATOM      1  O   HOH     1      41.217   3.977 -14.836  0.00  0.00    +0.000 OA
ENDROOT
TORSDOF 0
REMARK  Name = ../refined-set-2016/3hkw/3hkw_pocket.pdb
REMARK  252 active torsions:
REMARK  status: ('A' for Active; 'I' for Inactive)
REMARK    1  A    between atoms: _1  and  _3
REMARK    2  A    between atoms: _3  and  _4
REMARK    3  A    between atoms: _3  and  _6
REMARK    4  A    between atoms: _6  and  _7
REMARK    5  A    between atoms: _7  and  _8
REMARK    6  A    between atoms: _8  and  _9
REMARK    7  A    between atoms: _9  and  _10
REMARK    8  A    between atoms: _14  and  _16
REMARK    9  A    between atoms: _16  and  _17
REMARK   10  A    between atoms: _16  and  _19
REMARK   11  A    between atoms: _19  and  _20
REMARK   12  A    between atoms: _20  and  _21
REMARK   13  A    between atoms: _24  and  _26
REMARK   14  A    between atoms: _26  and  _27
REMARK   15  A    between atoms: _26  and  _29
REMARK   16  A    between atoms: _29  and  _30
REMARK   17  A    between atoms: _30  and  _31
REMARK   18  A    between atoms: _31  and  _32
REMARK   19  A    between atoms: _41  and  _43
REMARK   20  A    between atoms: _43  and  _44
REMARK   21  A    between atoms: _46  and  _48
REMARK   22  A    between atoms: _48  and  _49
REMARK   23  A    between atoms: _48  and  _51
REMARK   24  A    between atoms: _51  and  _52
REMARK   25  A    between atoms: _58  and  _60
REMARK   26  A    between atoms: _60  and  _61
REMARK   27  A    between atoms: _60  and  _63
REMARK   28  A    between atoms: _63  and  _64
REMARK   29  A    between atoms: _69  and  _70
REMARK   30  A    between atoms: _72  and  _74
REMARK   31  A    between atoms: _74  and  _75
REMARK   32  A    between atoms: _74  and  _77
REMARK   33  A    between atoms: _77  and  _78
REMARK   34  A    between atoms: _81  and  _82
REMARK   35  A    between atoms: _87  and  _89
REMARK   36  A    between atoms: _89  and  _90
REMARK   37  A    between atoms: _92  and  _94
REMARK   38  A    between atoms: _94  and  _95
REMARK   39  A    between atoms: _94  and  _97
REMARK   40  A    between atoms: _97  and  _98
REMARK   41  A    between atoms: _98  and  _99
REMARK   42  A    between atoms: _104  and  _106
REMARK   43  A    between atoms: _106  and  _107
REMARK   44  A    between atoms: _106  and  _109
REMARK   45  A    between atoms: _109  and  _110
REMARK   46  A    between atoms: _110  and  _111
REMARK   47  A    between atoms: _111  and  _112
REMARK   48  A    between atoms: _121  and  _123
REMARK   49  A    between atoms: _123  and  _124
REMARK   50  A    between atoms: _123  and  _126
REMARK   51  A    between atoms: _129  and  _131
REMARK   52  A    between atoms: _131  and  _132
REMARK   53  A    between atoms: _131  and  _134
REMARK   54  A    between atoms: _134  and  _135
REMARK   55  A    between atoms: _138  and  _140
REMARK   56  A    between atoms: _140  and  _141
REMARK   57  A    between atoms: _140  and  _143
REMARK   58  A    between atoms: _143  and  _144
REMARK   59  A    between atoms: _147  and  _149
REMARK   60  A    between atoms: _149  and  _150
REMARK   61  A    between atoms: _149  and  _152
REMARK   62  A    between atoms: _152  and  _153
REMARK   63  A    between atoms: _155  and  _157
REMARK   64  A    between atoms: _157  and  _158
REMARK   65  A    between atoms: _157  and  _160
REMARK   66  A    between atoms: _160  and  _161
REMARK   67  A    between atoms: _164  and  _166
REMARK   68  A    between atoms: _166  and  _167
REMARK   69  A    between atoms: _166  and  _169
REMARK   70  A    between atoms: _169  and  _170
REMARK   71  A    between atoms: _172  and  _174
REMARK   72  A    between atoms: _174  and  _175
REMARK   73  A    between atoms: _174  and  _177
REMARK   74  A    between atoms: _177  and  _178
REMARK   75  A    between atoms: _183  and  _185
REMARK   76  A    between atoms: _185  and  _186
REMARK   77  A    between atoms: _185  and  _188
REMARK   78  A    between atoms: _188  and  _189
REMARK   79  A    between atoms: _192  and  _194
REMARK   80  A    between atoms: _194  and  _195
REMARK   81  A    between atoms: _194  and  _197
REMARK   82  A    between atoms: _199  and  _201
REMARK   83  A    between atoms: _201  and  _202
REMARK   84  A    between atoms: _204  and  _206
REMARK   85  A    between atoms: _206  and  _207
REMARK   86  A    between atoms: _206  and  _209
REMARK   87  A    between atoms: _209  and  _210
REMARK   88  A    between atoms: _213  and  _215
REMARK   89  A    between atoms: _215  and  _216
REMARK   90  A    between atoms: _215  and  _218
REMARK   91  A    between atoms: _218  and  _219
REMARK   92  A    between atoms: _222  and  _224
REMARK   93  A    between atoms: _224  and  _225
REMARK   94  A    between atoms: _224  and  _227
REMARK   95  A    between atoms: _227  and  _228
REMARK   96  A    between atoms: _230  and  _232
REMARK   97  A    between atoms: _232  and  _233
REMARK   98  A    between atoms: _232  and  _235
REMARK   99  A    between atoms: _237  and  _239
REMARK  100  A    between atoms: _239  and  _240
REMARK  101  A    between atoms: _239  and  _242
REMARK  102  A    between atoms: _242  and  _243
REMARK  103  A    between atoms: _245  and  _247
REMARK  104  A    between atoms: _247  and  _248
REMARK  105  A    between atoms: _247  and  _250
REMARK  106  A    between atoms: _250  and  _251
REMARK  107  A    between atoms: _253  and  _255
REMARK  108  A    between atoms: _255  and  _256
REMARK  109  A    between atoms: _255  and  _258
REMARK  110  A    between atoms: _258  and  _259
REMARK  111  A    between atoms: _264  and  _266
REMARK  112  A    between atoms: _266  and  _267
REMARK  113  A    between atoms: _266  and  _269
REMARK  114  A    between atoms: _269  and  _270
REMARK  115  A    between atoms: _275  and  _276
REMARK  116  A    between atoms: _278  and  _280
REMARK  117  A    between atoms: _280  and  _281
REMARK  118  A    between atoms: _280  and  _283
REMARK  119  A    between atoms: _283  and  _284
REMARK  120  A    between atoms: _287  and  _289
REMARK  121  A    between atoms: _289  and  _290
REMARK  122  A    between atoms: _289  and  _292
REMARK  123  A    between atoms: _292  and  _293
REMARK  124  A    between atoms: _296  and  _298
REMARK  125  A    between atoms: _298  and  _299
REMARK  126  A    between atoms: _298  and  _301
REMARK  127  A    between atoms: _301  and  _302
REMARK  128  A    between atoms: _302  and  _303
REMARK  129  A    between atoms: _303  and  _304
REMARK  130  A    between atoms: _313  and  _315
REMARK  131  A    between atoms: _315  and  _316
REMARK  132  A    between atoms: _315  and  _318
REMARK  133  A    between atoms: _318  and  _319
REMARK  134  A    between atoms: _323  and  _324
REMARK  135  A    between atoms: _329  and  _331
REMARK  136  A    between atoms: _331  and  _332
REMARK  137  A    between atoms: _331  and  _334
REMARK  138  A    between atoms: _334  and  _335
REMARK  139  A    between atoms: _335  and  _336
REMARK  140  A    between atoms: _336  and  _337
REMARK  141  A    between atoms: _346  and  _348
REMARK  142  A    between atoms: _348  and  _349
REMARK  143  A    between atoms: _348  and  _351
REMARK  144  A    between atoms: _351  and  _352
REMARK  145  A    between atoms: _352  and  _353
REMARK  146  A    between atoms: _356  and  _358
REMARK  147  A    between atoms: _358  and  _359
REMARK  148  A    between atoms: _358  and  _361
REMARK  149  A    between atoms: _364  and  _366
REMARK  150  A    between atoms: _366  and  _367
REMARK  151  A    between atoms: _366  and  _369
REMARK  152  A    between atoms: _369  and  _370
REMARK  153  A    between atoms: _375  and  _377
REMARK  154  A    between atoms: _377  and  _378
REMARK  155  A    between atoms: _377  and  _380
REMARK  156  A    between atoms: _380  and  _381
REMARK  157  A    between atoms: _383  and  _385
REMARK  158  A    between atoms: _385  and  _386
REMARK  159  A    between atoms: _385  and  _388
REMARK  160  A    between atoms: _388  and  _389
REMARK  161  A    between atoms: _399  and  _401
REMARK  162  A    between atoms: _401  and  _402
REMARK  163  A    between atoms: _401  and  _404
REMARK  164  A    between atoms: _404  and  _405
REMARK  165  A    between atoms: _408  and  _410
REMARK  166  A    between atoms: _410  and  _411
REMARK  167  A    between atoms: _413  and  _415
REMARK  168  A    between atoms: _415  and  _416
REMARK  169  A    between atoms: _415  and  _418
REMARK  170  A    between atoms: _418  and  _419
REMARK  171  A    between atoms: _424  and  _426
REMARK  172  A    between atoms: _426  and  _427
REMARK  173  A    between atoms: _426  and  _429
REMARK  174  A    between atoms: _429  and  _430
REMARK  175  A    between atoms: _433  and  _435
REMARK  176  A    between atoms: _435  and  _436
REMARK  177  A    between atoms: _435  and  _438
REMARK  178  A    between atoms: _438  and  _439
REMARK  179  A    between atoms: _442  and  _444
REMARK  180  A    between atoms: _444  and  _445
REMARK  181  A    between atoms: _444  and  _447
REMARK  182  A    between atoms: _447  and  _448
REMARK  183  A    between atoms: _448  and  _449
REMARK  184  A    between atoms: _451  and  _453
REMARK  185  A    between atoms: _453  and  _454
REMARK  186  A    between atoms: _453  and  _456
REMARK  187  A    between atoms: _456  and  _457
REMARK  188  A    between atoms: _463  and  _465
REMARK  189  A    between atoms: _465  and  _466
REMARK  190  A    between atoms: _470  and  _471
REMARK  191  A    between atoms: _476  and  _478
REMARK  192  A    between atoms: _478  and  _479
REMARK  193  A    between atoms: _478  and  _481
REMARK  194  A    between atoms: _481  and  _482
REMARK  195  A    between atoms: _485  and  _487
REMARK  196  A    between atoms: _487  and  _488
REMARK  197  A    between atoms: _487  and  _490
REMARK  198  A    between atoms: _490  and  _491
REMARK  199  A    between atoms: _501  and  _503
REMARK  200  A    between atoms: _503  and  _504
REMARK  201  A    between atoms: _503  and  _506
REMARK  202  A    between atoms: _508  and  _510
REMARK  203  A    between atoms: _510  and  _511
REMARK  204  A    between atoms: _510  and  _513
REMARK  205  A    between atoms: _513  and  _514
REMARK  206  A    between atoms: _514  and  _515
REMARK  207  A    between atoms: _518  and  _520
REMARK  208  A    between atoms: _520  and  _521
REMARK  209  A    between atoms: _520  and  _523
REMARK  210  A    between atoms: _523  and  _524
REMARK  211  A    between atoms: _527  and  _529
REMARK  212  A    between atoms: _529  and  _530
REMARK  213  A    between atoms: _529  and  _532
REMARK  214  A    between atoms: _532  and  _533
REMARK  215  A    between atoms: _538  and  _539
REMARK  216  A    between atoms: _541  and  _543
REMARK  217  A    between atoms: _543  and  _544
REMARK  218  A    between atoms: _546  and  _548
REMARK  219  A    between atoms: _548  and  _549
REMARK  220  A    between atoms: _552  and  _554
REMARK  221  A    between atoms: _554  and  _555
REMARK  222  A    between atoms: _554  and  _557
REMARK  223  A    between atoms: _559  and  _561
REMARK  224  A    between atoms: _561  and  _562
REMARK  225  A    between atoms: _561  and  _564
REMARK  226  A    between atoms: _564  and  _565
REMARK  227  A    between atoms: _570  and  _571
REMARK  228  A    between atoms: _573  and  _575
REMARK  229  A    between atoms: _575  and  _576
REMARK  230  A    between atoms: _575  and  _578
REMARK  231  A    between atoms: _578  and  _579
REMARK  232  A    between atoms: _584  and  _586
REMARK  233  A    between atoms: _586  and  _587
REMARK  234  A    between atoms: _586  and  _589
REMARK  235  A    between atoms: _589  and  _590
REMARK  236  A    between atoms: _596  and  _598
REMARK  237  A    between atoms: _598  and  _599
REMARK  238  A    between atoms: _602  and  _604
REMARK  239  A    between atoms: _604  and  _605
REMARK  240  A    between atoms: _607  and  _609
REMARK  241  A    between atoms: _609  and  _610
REMARK  242  A    between atoms: _609  and  _612
REMARK  243  A    between atoms: _612  and  _613
REMARK  244  A    between atoms: _618  and  _619
REMARK  245  A    between atoms: _621  and  _623
REMARK  246  A    between atoms: _623  and  _624
REMARK  247  A    between atoms: _623  and  _626
REMARK  248  A    between atoms: _626  and  _627
REMARK  249  A    between atoms: _629  and  _631
REMARK  250  A    between atoms: _631  and  _632
REMARK  251  A    between atoms: _634  and  _636
REMARK  252  A    between atoms: _636  and  _637
REMARK                            x       y       z     vdW  Elec       q    Type
REMARK                         _______ _______ _______ _____ _____    ______ ____
ROOT
ATOM      1  O   HOH     1      36.694   0.859 -11.190  0.00  0.00    +0.000 OA
ENDROOT
TORSDOF 0
REMARK  Name = ../refined-set-2016/3hkw/3hkw_pocket.pdb
REMARK  252 active torsions:
REMARK  status: ('A' for Active; 'I' for Inactive)
REMARK    1  A    between atoms: _1  and  _3
REMARK    2  A    between atoms: _3  and  _4
REMARK    3  A    between atoms: _3  and  _6
REMARK    4  A    between atoms: _6  and  _7
REMARK    5  A    between atoms: _7  and  _8
REMARK    6  A    between atoms: _8  and  _9
REMARK    7  A    between atoms: _9  and  _10
REMARK    8  A    between atoms: _14  and  _16
REMARK    9  A    between atoms: _16  and  _17
REMARK   10  A    between atoms: _16  and  _19
REMARK   11  A    between atoms: _19  and  _20
REMARK   12  A    between atoms: _20  and  _21
REMARK   13  A    between atoms: _24  and  _26
REMARK   14  A    between atoms: _26  and  _27
REMARK   15  A    between atoms: _26  and  _29
REMARK   16  A    between atoms: _29  and  _30
REMARK   17  A    between atoms: _30  and  _31
REMARK   18  A    between atoms: _31  and  _32
REMARK   19  A    between atoms: _41  and  _43
REMARK   20  A    between atoms: _43  and  _44
REMARK   21  A    between atoms: _46  and  _48
REMARK   22  A    between atoms: _48  and  _49
REMARK   23  A    between atoms: _48  and  _51
REMARK   24  A    between atoms: _51  and  _52
REMARK   25  A    between atoms: _58  and  _60
REMARK   26  A    between atoms: _60  and  _61
REMARK   27  A    between atoms: _60  and  _63
REMARK   28  A    between atoms: _63  and  _64
REMARK   29  A    between atoms: _69  and  _70
REMARK   30  A    between atoms: _72  and  _74
REMARK   31  A    between atoms: _74  and  _75
REMARK   32  A    between atoms: _74  and  _77
REMARK   33  A    between atoms: _77  and  _78
REMARK   34  A    between atoms: _81  and  _82
REMARK   35  A    between atoms: _87  and  _89
REMARK   36  A    between atoms: _89  and  _90
REMARK   37  A    between atoms: _92  and  _94
REMARK   38  A    between atoms: _94  and  _95
REMARK   39  A    between atoms: _94  and  _97
REMARK   40  A    between atoms: _97  and  _98
REMARK   41  A    between atoms: _98  and  _99
REMARK   42  A    between atoms: _104  and  _106
REMARK   43  A    between atoms: _106  and  _107
REMARK   44  A    between atoms: _106  and  _109
REMARK   45  A    between atoms: _109  and  _110
REMARK   46  A    between atoms: _110  and  _111
REMARK   47  A    between atoms: _111  and  _112
REMARK   48  A    between atoms: _121  and  _123
REMARK   49  A    between atoms: _123  and  _124
REMARK   50  A    between atoms: _123  and  _126
REMARK   51  A    between atoms: _129  and  _131
REMARK   52  A    between atoms: _131  and  _132
REMARK   53  A    between atoms: _131  and  _134
REMARK   54  A    between atoms: _134  and  _135
REMARK   55  A    between atoms: _138  and  _140
REMARK   56  A    between atoms: _140  and  _141
REMARK   57  A    between atoms: _140  and  _143
REMARK   58  A    between atoms: _143  and  _144
REMARK   59  A    between atoms: _147  and  _149
REMARK   60  A    between atoms: _149  and  _150
REMARK   61  A    between atoms: _149  and  _152
REMARK   62  A    between atoms: _152  and  _153
REMARK   63  A    between atoms: _155  and  _157
REMARK   64  A    between atoms: _157  and  _158
REMARK   65  A    between atoms: _157  and  _160
REMARK   66  A    between atoms: _160  and  _161
REMARK   67  A    between atoms: _164  and  _166
REMARK   68  A    between atoms: _166  and  _167
REMARK   69  A    between atoms: _166  and  _169
REMARK   70  A    between atoms: _169  and  _170
REMARK   71  A    between atoms: _172  and  _174
REMARK   72  A    between atoms: _174  and  _175
REMARK   73  A    between atoms: _174  and  _177
REMARK   74  A    between atoms: _177  and  _178
REMARK   75  A    between atoms: _183  and  _185
REMARK   76  A    between atoms: _185  and  _186
REMARK   77  A    between atoms: _185  and  _188
REMARK   78  A    between atoms: _188  and  _189
REMARK   79  A    between atoms: _192  and  _194
REMARK   80  A    between atoms: _194  and  _195
REMARK   81  A    between atoms: _194  and  _197
REMARK   82  A    between atoms: _199  and  _201
REMARK   83  A    between atoms: _201  and  _202
REMARK   84  A    between atoms: _204  and  _206
REMARK   85  A    between atoms: _206  and  _207
REMARK   86  A    between atoms: _206  and  _209
REMARK   87  A    between atoms: _209  and  _210
REMARK   88  A    between atoms: _213  and  _215
REMARK   89  A    between atoms: _215  and  _216
REMARK   90  A    between atoms: _215  and  _218
REMARK   91  A    between atoms: _218  and  _219
REMARK   92  A    between atoms: _222  and  _224
REMARK   93  A    between atoms: _224  and  _225
REMARK   94  A    between atoms: _224  and  _227
REMARK   95  A    between atoms: _227  and  _228
REMARK   96  A    between atoms: _230  and  _232
REMARK   97  A    between atoms: _232  and  _233
REMARK   98  A    between atoms: _232  and  _235
REMARK   99  A    between atoms: _237  and  _239
REMARK  100  A    between atoms: _239  and  _240
REMARK  101  A    between atoms: _239  and  _242
REMARK  102  A    between atoms: _242  and  _243
REMARK  103  A    between atoms: _245  and  _247
REMARK  104  A    between atoms: _247  and  _248
REMARK  105  A    between atoms: _247  and  _250
REMARK  106  A    between atoms: _250  and  _251
REMARK  107  A    between atoms: _253  and  _255
REMARK  108  A    between atoms: _255  and  _256
REMARK  109  A    between atoms: _255  and  _258
REMARK  110  A    between atoms: _258  and  _259
REMARK  111  A    between atoms: _264  and  _266
REMARK  112  A    between atoms: _266  and  _267
REMARK  113  A    between atoms: _266  and  _269
REMARK  114  A    between atoms: _269  and  _270
REMARK  115  A    between atoms: _275  and  _276
REMARK  116  A    between atoms: _278  and  _280
REMARK  117  A    between atoms: _280  and  _281
REMARK  118  A    between atoms: _280  and  _283
REMARK  119  A    between atoms: _283  and  _284
REMARK  120  A    between atoms: _287  and  _289
REMARK  121  A    between atoms: _289  and  _290
REMARK  122  A    between atoms: _289  and  _292
REMARK  123  A    between atoms: _292  and  _293
REMARK  124  A    between atoms: _296  and  _298
REMARK  125  A    between atoms: _298  and  _299
REMARK  126  A    between atoms: _298  and  _301
REMARK  127  A    between atoms: _301  and  _302
REMARK  128  A    between atoms: _302  and  _303
REMARK  129  A    between atoms: _303  and  _304
REMARK  130  A    between atoms: _313  and  _315
REMARK  131  A    between atoms: _315  and  _316
REMARK  132  A    between atoms: _315  and  _318
REMARK  133  A    between atoms: _318  and  _319
REMARK  134  A    between atoms: _323  and  _324
REMARK  135  A    between atoms: _329  and  _331
REMARK  136  A    between atoms: _331  and  _332
REMARK  137  A    between atoms: _331  and  _334
REMARK  138  A    between atoms: _334  and  _335
REMARK  139  A    between atoms: _335  and  _336
REMARK  140  A    between atoms: _336  and  _337
REMARK  141  A    between atoms: _346  and  _348
REMARK  142  A    between atoms: _348  and  _349
REMARK  143  A    between atoms: _348  and  _351
REMARK  144  A    between atoms: _351  and  _352
REMARK  145  A    between atoms: _352  and  _353
REMARK  146  A    between atoms: _356  and  _358
REMARK  147  A    between atoms: _358  and  _359
REMARK  148  A    between atoms: _358  and  _361
REMARK  149  A    between atoms: _364  and  _366
REMARK  150  A    between atoms: _366  and  _367
REMARK  151  A    between atoms: _366  and  _369
REMARK  152  A    between atoms: _369  and  _370
REMARK  153  A    between atoms: _375  and  _377
REMARK  154  A    between atoms: _377  and  _378
REMARK  155  A    between atoms: _377  and  _380
REMARK  156  A    between atoms: _380  and  _381
REMARK  157  A    between atoms: _383  and  _385
REMARK  158  A    between atoms: _385  and  _386
REMARK  159  A    between atoms: _385  and  _388
REMARK  160  A    between atoms: _388  and  _389
REMARK  161  A    between atoms: _399  and  _401
REMARK  162  A    between atoms: _401  and  _402
REMARK  163  A    between atoms: _401  and  _404
REMARK  164  A    between atoms: _404  and  _405
REMARK  165  A    between atoms: _408  and  _410
REMARK  166  A    between atoms: _410  and  _411
REMARK  167  A    between atoms: _413  and  _415
REMARK  168  A    between atoms: _415  and  _416
REMARK  169  A    between atoms: _415  and  _418
REMARK  170  A    between atoms: _418  and  _419
REMARK  171  A    between atoms: _424  and  _426
REMARK  172  A    between atoms: _426  and  _427
REMARK  173  A    between atoms: _426  and  _429
REMARK  174  A    between atoms: _429  and  _430
REMARK  175  A    between atoms: _433  and  _435
REMARK  176  A    between atoms: _435  and  _436
REMARK  177  A    between atoms: _435  and  _438
REMARK  178  A    between atoms: _438  and  _439
REMARK  179  A    between atoms: _442  and  _444
REMARK  180  A    between atoms: _444  and  _445
REMARK  181  A    between atoms: _444  and  _447
REMARK  182  A    between atoms: _447  and  _448
REMARK  183  A    between atoms: _448  and  _449
REMARK  184  A    between atoms: _451  and  _453
REMARK  185  A    between atoms: _453  and  _454
REMARK  186  A    between atoms: _453  and  _456
REMARK  187  A    between atoms: _456  and  _457
REMARK  188  A    between atoms: _463  and  _465
REMARK  189  A    between atoms: _465  and  _466
REMARK  190  A    between atoms: _470  and  _471
REMARK  191  A    between atoms: _476  and  _478
REMARK  192  A    between atoms: _478  and  _479
REMARK  193  A    between atoms: _478  and  _481
REMARK  194  A    between atoms: _481  and  _482
REMARK  195  A    between atoms: _485  and  _487
REMARK  196  A    between atoms: _487  and  _488
REMARK  197  A    between atoms: _487  and  _490
REMARK  198  A    between atoms: _490  and  _491
REMARK  199  A    between atoms: _501  and  _503
REMARK  200  A    between atoms: _503  and  _504
REMARK  201  A    between atoms: _503  and  _506
REMARK  202  A    between atoms: _508  and  _510
REMARK  203  A    between atoms: _510  and  _511
REMARK  204  A    between atoms: _510  and  _513
REMARK  205  A    between atoms: _513  and  _514
REMARK  206  A    between atoms: _514  and  _515
REMARK  207  A    between atoms: _518  and  _520
REMARK  208  A    between atoms: _520  and  _521
REMARK  209  A    between atoms: _520  and  _523
REMARK  210  A    between atoms: _523  and  _524
REMARK  211  A    between atoms: _527  and  _529
REMARK  212  A    between atoms: _529  and  _530
REMARK  213  A    between atoms: _529  and  _532
REMARK  214  A    between atoms: _532  and  _533
REMARK  215  A    between atoms: _538  and  _539
REMARK  216  A    between atoms: _541  and  _543
REMARK  217  A    between atoms: _543  and  _544
REMARK  218  A    between atoms: _546  and  _548
REMARK  219  A    between atoms: _548  and  _549
REMARK  220  A    between atoms: _552  and  _554
REMARK  221  A    between atoms: _554  and  _555
REMARK  222  A    between atoms: _554  and  _557
REMARK  223  A    between atoms: _559  and  _561
REMARK  224  A    between atoms: _561  and  _562
REMARK  225  A    between atoms: _561  and  _564
REMARK  226  A    between atoms: _564  and  _565
REMARK  227  A    between atoms: _570  and  _571
REMARK  228  A    between atoms: _573  and  _575
REMARK  229  A    between atoms: _575  and  _576
REMARK  230  A    between atoms: _575  and  _578
REMARK  231  A    between atoms: _578  and  _579
REMARK  232  A    between atoms: _584  and  _586
REMARK  233  A    between atoms: _586  and  _587
REMARK  234  A    between atoms: _586  and  _589
REMARK  235  A    between atoms: _589  and  _590
REMARK  236  A    between atoms: _596  and  _598
REMARK  237  A    between atoms: _598  and  _599
REMARK  238  A    between atoms: _602  and  _604
REMARK  239  A    between atoms: _604  and  _605
REMARK  240  A    between atoms: _607  and  _609
REMARK  241  A    between atoms: _609  and  _610
REMARK  242  A    between atoms: _609  and  _612
REMARK  243  A    between atoms: _612  and  _613
REMARK  244  A    between atoms: _618  and  _619
REMARK  245  A    between atoms: _621  and  _623
REMARK  246  A    between atoms: _623  and  _624
REMARK  247  A    between atoms: _623  and  _626
REMARK  248  A    between atoms: _626  and  _627
REMARK  249  A    between atoms: _629  and  _631
REMARK  250  A    between atoms: _631  and  _632
REMARK  251  A    between atoms: _634  and  _636
REMARK  252  A    between atoms: _636  and  _637
REMARK                            x       y       z     vdW  Elec       q    Type
REMARK                         _______ _______ _______ _____ _____    ______ ____
ROOT
ATOM      1  O   HOH     1      46.739   0.021 -11.022  0.00  0.00    +0.000 OA
ENDROOT
TORSDOF 0
REMARK  Name = ../refined-set-2016/3hkw/3hkw_pocket.pdb
REMARK  252 active torsions:
REMARK  status: ('A' for Active; 'I' for Inactive)
REMARK    1  A    between atoms: _1  and  _3
REMARK    2  A    between atoms: _3  and  _4
REMARK    3  A    between atoms: _3  and  _6
REMARK    4  A    between atoms: _6  and  _7
REMARK    5  A    between atoms: _7  and  _8
REMARK    6  A    between atoms: _8  and  _9
REMARK    7  A    between atoms: _9  and  _10
REMARK    8  A    between atoms: _14  and  _16
REMARK    9  A    between atoms: _16  and  _17
REMARK   10  A    between atoms: _16  and  _19
REMARK   11  A    between atoms: _19  and  _20
REMARK   12  A    between atoms: _20  and  _21
REMARK   13  A    between atoms: _24  and  _26
REMARK   14  A    between atoms: _26  and  _27
REMARK   15  A    between atoms: _26  and  _29
REMARK   16  A    between atoms: _29  and  _30
REMARK   17  A    between atoms: _30  and  _31
REMARK   18  A    between atoms: _31  and  _32
REMARK   19  A    between atoms: _41  and  _43
REMARK   20  A    between atoms: _43  and  _44
REMARK   21  A    between atoms: _46  and  _48
REMARK   22  A    between atoms: _48  and  _49
REMARK   23  A    between atoms: _48  and  _51
REMARK   24  A    between atoms: _51  and  _52
REMARK   25  A    between atoms: _58  and  _60
REMARK   26  A    between atoms: _60  and  _61
REMARK   27  A    between atoms: _60  and  _63
REMARK   28  A    between atoms: _63  and  _64
REMARK   29  A    between atoms: _69  and  _70
REMARK   30  A    between atoms: _72  and  _74
REMARK   31  A    between atoms: _74  and  _75
REMARK   32  A    between atoms: _74  and  _77
REMARK   33  A    between atoms: _77  and  _78
REMARK   34  A    between atoms: _81  and  _82
REMARK   35  A    between atoms: _87  and  _89
REMARK   36  A    between atoms: _89  and  _90
REMARK   37  A    between atoms: _92  and  _94
REMARK   38  A    between atoms: _94  and  _95
REMARK   39  A    between atoms: _94  and  _97
REMARK   40  A    between atoms: _97  and  _98
REMARK   41  A    between atoms: _98  and  _99
REMARK   42  A    between atoms: _104  and  _106
REMARK   43  A    between atoms: _106  and  _107
REMARK   44  A    between atoms: _106  and  _109
REMARK   45  A    between atoms: _109  and  _110
REMARK   46  A    between atoms: _110  and  _111
REMARK   47  A    between atoms: _111  and  _112
REMARK   48  A    between atoms: _121  and  _123
REMARK   49  A    between atoms: _123  and  _124
REMARK   50  A    between atoms: _123  and  _126
REMARK   51  A    between atoms: _129  and  _131
REMARK   52  A    between atoms: _131  and  _132
REMARK   53  A    between atoms: _131  and  _134
REMARK   54  A    between atoms: _134  and  _135
REMARK   55  A    between atoms: _138  and  _140
REMARK   56  A    between atoms: _140  and  _141
REMARK   57  A    between atoms: _140  and  _143
REMARK   58  A    between atoms: _143  and  _144
REMARK   59  A    between atoms: _147  and  _149
REMARK   60  A    between atoms: _149  and  _150
REMARK   61  A    between atoms: _149  and  _152
REMARK   62  A    between atoms: _152  and  _153
REMARK   63  A    between atoms: _155  and  _157
REMARK   64  A    between atoms: _157  and  _158
REMARK   65  A    between atoms: _157  and  _160
REMARK   66  A    between atoms: _160  and  _161
REMARK   67  A    between atoms: _164  and  _166
REMARK   68  A    between atoms: _166  and  _167
REMARK   69  A    between atoms: _166  and  _169
REMARK   70  A    between atoms: _169  and  _170
REMARK   71  A    between atoms: _172  and  _174
REMARK   72  A    between atoms: _174  and  _175
REMARK   73  A    between atoms: _174  and  _177
REMARK   74  A    between atoms: _177  and  _178
REMARK   75  A    between atoms: _183  and  _185
REMARK   76  A    between atoms: _185  and  _186
REMARK   77  A    between atoms: _185  and  _188
REMARK   78  A    between atoms: _188  and  _189
REMARK   79  A    between atoms: _192  and  _194
REMARK   80  A    between atoms: _194  and  _195
REMARK   81  A    between atoms: _194  and  _197
REMARK   82  A    between atoms: _199  and  _201
REMARK   83  A    between atoms: _201  and  _202
REMARK   84  A    between atoms: _204  and  _206
REMARK   85  A    between atoms: _206  and  _207
REMARK   86  A    between atoms: _206  and  _209
REMARK   87  A    between atoms: _209  and  _210
REMARK   88  A    between atoms: _213  and  _215
REMARK   89  A    between atoms: _215  and  _216
REMARK   90  A    between atoms: _215  and  _218
REMARK   91  A    between atoms: _218  and  _219
REMARK   92  A    between atoms: _222  and  _224
REMARK   93  A    between atoms: _224  and  _225
REMARK   94  A    between atoms: _224  and  _227
REMARK   95  A    between atoms: _227  and  _228
REMARK   96  A    between atoms: _230  and  _232
REMARK   97  A    between atoms: _232  and  _233
REMARK   98  A    between atoms: _232  and  _235
REMARK   99  A    between atoms: _237  and  _239
REMARK  100  A    between atoms: _239  and  _240
REMARK  101  A    between atoms: _239  and  _242
REMARK  102  A    between atoms: _242  and  _243
REMARK  103  A    between atoms: _245  and  _247
REMARK  104  A    between atoms: _247  and  _248
REMARK  105  A    between atoms: _247  and  _250
REMARK  106  A    between atoms: _250  and  _251
REMARK  107  A    between atoms: _253  and  _255
REMARK  108  A    between atoms: _255  and  _256
REMARK  109  A    between atoms: _255  and  _258
REMARK  110  A    between atoms: _258  and  _259
REMARK  111  A    between atoms: _264  and  _266
REMARK  112  A    between atoms: _266  and  _267
REMARK  113  A    between atoms: _266  and  _269
REMARK  114  A    between atoms: _269  and  _270
REMARK  115  A    between atoms: _275  and  _276
REMARK  116  A    between atoms: _278  and  _280
REMARK  117  A    between atoms: _280  and  _281
REMARK  118  A    between atoms: _280  and  _283
REMARK  119  A    between atoms: _283  and  _284
REMARK  120  A    between atoms: _287  and  _289
REMARK  121  A    between atoms: _289  and  _290
REMARK  122  A    between atoms: _289  and  _292
REMARK  123  A    between atoms: _292  and  _293
REMARK  124  A    between atoms: _296  and  _298
REMARK  125  A    between atoms: _298  and  _299
REMARK  126  A    between atoms: _298  and  _301
REMARK  127  A    between atoms: _301  and  _302
REMARK  128  A    between atoms: _302  and  _303
REMARK  129  A    between atoms: _303  and  _304
REMARK  130  A    between atoms: _313  and  _315
REMARK  131  A    between atoms: _315  and  _316
REMARK  132  A    between atoms: _315  and  _318
REMARK  133  A    between atoms: _318  and  _319
REMARK  134  A    between atoms: _323  and  _324
REMARK  135  A    between atoms: _329  and  _331
REMARK  136  A    between atoms: _331  and  _332
REMARK  137  A    between atoms: _331  and  _334
REMARK  138  A    between atoms: _334  and  _335
REMARK  139  A    between atoms: _335  and  _336
REMARK  140  A    between atoms: _336  and  _337
REMARK  141  A    between atoms: _346  and  _348
REMARK  142  A    between atoms: _348  and  _349
REMARK  143  A    between atoms: _348  and  _351
REMARK  144  A    between atoms: _351  and  _352
REMARK  145  A    between atoms: _352  and  _353
REMARK  146  A    between atoms: _356  and  _358
REMARK  147  A    between atoms: _358  and  _359
REMARK  148  A    between atoms: _358  and  _361
REMARK  149  A    between atoms: _364  and  _366
REMARK  150  A    between atoms: _366  and  _367
REMARK  151  A    between atoms: _366  and  _369
REMARK  152  A    between atoms: _369  and  _370
REMARK  153  A    between atoms: _375  and  _377
REMARK  154  A    between atoms: _377  and  _378
REMARK  155  A    between atoms: _377  and  _380
REMARK  156  A    between atoms: _380  and  _381
REMARK  157  A    between atoms: _383  and  _385
REMARK  158  A    between atoms: _385  and  _386
REMARK  159  A    between atoms: _385  and  _388
REMARK  160  A    between atoms: _388  and  _389
REMARK  161  A    between atoms: _399  and  _401
REMARK  162  A    between atoms: _401  and  _402
REMARK  163  A    between atoms: _401  and  _404
REMARK  164  A    between atoms: _404  and  _405
REMARK  165  A    between atoms: _408  and  _410
REMARK  166  A    between atoms: _410  and  _411
REMARK  167  A    between atoms: _413  and  _415
REMARK  168  A    between atoms: _415  and  _416
REMARK  169  A    between atoms: _415  and  _418
REMARK  170  A    between atoms: _418  and  _419
REMARK  171  A    between atoms: _424  and  _426
REMARK  172  A    between atoms: _426  and  _427
REMARK  173  A    between atoms: _426  and  _429
REMARK  174  A    between atoms: _429  and  _430
REMARK  175  A    between atoms: _433  and  _435
REMARK  176  A    between atoms: _435  and  _436
REMARK  177  A    between atoms: _435  and  _438
REMARK  178  A    between atoms: _438  and  _439
REMARK  179  A    between atoms: _442  and  _444
REMARK  180  A    between atoms: _444  and  _445
REMARK  181  A    between atoms: _444  and  _447
REMARK  182  A    between atoms: _447  and  _448
REMARK  183  A    between atoms: _448  and  _449
REMARK  184  A    between atoms: _451  and  _453
REMARK  185  A    between atoms: _453  and  _454
REMARK  186  A    between atoms: _453  and  _456
REMARK  187  A    between atoms: _456  and  _457
REMARK  188  A    between atoms: _463  and  _465
REMARK  189  A    between atoms: _465  and  _466
REMARK  190  A    between atoms: _470  and  _471
REMARK  191  A    between atoms: _476  and  _478
REMARK  192  A    between atoms: _478  and  _479
REMARK  193  A    between atoms: _478  and  _481
REMARK  194  A    between atoms: _481  and  _482
REMARK  195  A    between atoms: _485  and  _487
REMARK  196  A    between atoms: _487  and  _488
REMARK  197  A    between atoms: _487  and  _490
REMARK  198  A    between atoms: _490  and  _491
REMARK  199  A    between atoms: _501  and  _503
REMARK  200  A    between atoms: _503  and  _504
REMARK  201  A    between atoms: _503  and  _506
REMARK  202  A    between atoms: _508  and  _510
REMARK  203  A    between atoms: _510  and  _511
REMARK  204  A    between atoms: _510  and  _513
REMARK  205  A    between atoms: _513  and  _514
REMARK  206  A    between atoms: _514  and  _515
REMARK  207  A    between atoms: _518  and  _520
REMARK  208  A    between atoms: _520  and  _521
REMARK  209  A    between atoms: _520  and  _523
REMARK  210  A    between atoms: _523  and  _524
REMARK  211  A    between atoms: _527  and  _529
REMARK  212  A    between atoms: _529  and  _530
REMARK  213  A    between atoms: _529  and  _532
REMARK  214  A    between atoms: _532  and  _533
REMARK  215  A    between atoms: _538  and  _539
REMARK  216  A    between atoms: _541  and  _543
REMARK  217  A    between atoms: _543  and  _544
REMARK  218  A    between atoms: _546  and  _548
REMARK  219  A    between atoms: _548  and  _549
REMARK  220  A    between atoms: _552  and  _554
REMARK  221  A    between atoms: _554  and  _555
REMARK  222  A    between atoms: _554  and  _557
REMARK  223  A    between atoms: _559  and  _561
REMARK  224  A    between atoms: _561  and  _562
REMARK  225  A    between atoms: _561  and  _564
REMARK  226  A    between atoms: _564  and  _565
REMARK  227  A    between atoms: _570  and  _571
REMARK  228  A    between atoms: _573  and  _575
REMARK  229  A    between atoms: _575  and  _576
REMARK  230  A    between atoms: _575  and  _578
REMARK  231  A    between atoms: _578  and  _579
REMARK  232  A    between atoms: _584  and  _586
REMARK  233  A    between atoms: _586  and  _587
REMARK  234  A    between atoms: _586  and  _589
REMARK  235  A    between atoms: _589  and  _590
REMARK  236  A    between atoms: _596  and  _598
REMARK  237  A    between atoms: _598  and  _599
REMARK  238  A    between atoms: _602  and  _604
REMARK  239  A    between atoms: _604  and  _605
REMARK  240  A    between atoms: _607  and  _609
REMARK  241  A    between atoms: _609  and  _610
REMARK  242  A    between atoms: _609  and  _612
REMARK  243  A    between atoms: _612  and  _613
REMARK  244  A    between atoms: _618  and  _619
REMARK  245  A    between atoms: _621  and  _623
REMARK  246  A    between atoms: _623  and  _624
REMARK  247  A    between atoms: _623  and  _626
REMARK  248  A    between atoms: _626  and  _627
REMARK  249  A    between atoms: _629  and  _631
REMARK  250  A    between atoms: _631  and  _632
REMARK  251  A    between atoms: _634  and  _636
REMARK  252  A    between atoms: _636  and  _637
REMARK                            x       y       z     vdW  Elec       q    Type
REMARK                         _______ _______ _______ _____ _____    ______ ____
ROOT
ATOM      1  O   HOH     1      40.005  -4.526 -13.870  0.00  0.00    +0.000 OA
ENDROOT
TORSDOF 0
REMARK  Name = ../refined-set-2016/3hkw/3hkw_pocket.pdb
REMARK  252 active torsions:
REMARK  status: ('A' for Active; 'I' for Inactive)
REMARK    1  A    between atoms: _1  and  _3
REMARK    2  A    between atoms: _3  and  _4
REMARK    3  A    between atoms: _3  and  _6
REMARK    4  A    between atoms: _6  and  _7
REMARK    5  A    between atoms: _7  and  _8
REMARK    6  A    between atoms: _8  and  _9
REMARK    7  A    between atoms: _9  and  _10
REMARK    8  A    between atoms: _14  and  _16
REMARK    9  A    between atoms: _16  and  _17
REMARK   10  A    between atoms: _16  and  _19
REMARK   11  A    between atoms: _19  and  _20
REMARK   12  A    between atoms: _20  and  _21
REMARK   13  A    between atoms: _24  and  _26
REMARK   14  A    between atoms: _26  and  _27
REMARK   15  A    between atoms: _26  and  _29
REMARK   16  A    between atoms: _29  and  _30
REMARK   17  A    between atoms: _30  and  _31
REMARK   18  A    between atoms: _31  and  _32
REMARK   19  A    between atoms: _41  and  _43
REMARK   20  A    between atoms: _43  and  _44
REMARK   21  A    between atoms: _46  and  _48
REMARK   22  A    between atoms: _48  and  _49
REMARK   23  A    between atoms: _48  and  _51
REMARK   24  A    between atoms: _51  and  _52
REMARK   25  A    between atoms: _58  and  _60
REMARK   26  A    between atoms: _60  and  _61
REMARK   27  A    between atoms: _60  and  _63
REMARK   28  A    between atoms: _63  and  _64
REMARK   29  A    between atoms: _69  and  _70
REMARK   30  A    between atoms: _72  and  _74
REMARK   31  A    between atoms: _74  and  _75
REMARK   32  A    between atoms: _74  and  _77
REMARK   33  A    between atoms: _77  and  _78
REMARK   34  A    between atoms: _81  and  _82
REMARK   35  A    between atoms: _87  and  _89
REMARK   36  A    between atoms: _89  and  _90
REMARK   37  A    between atoms: _92  and  _94
REMARK   38  A    between atoms: _94  and  _95
REMARK   39  A    between atoms: _94  and  _97
REMARK   40  A    between atoms: _97  and  _98
REMARK   41  A    between atoms: _98  and  _99
REMARK   42  A    between atoms: _104  and  _106
REMARK   43  A    between atoms: _106  and  _107
REMARK   44  A    between atoms: _106  and  _109
REMARK   45  A    between atoms: _109  and  _110
REMARK   46  A    between atoms: _110  and  _111
REMARK   47  A    between atoms: _111  and  _112
REMARK   48  A    between atoms: _121  and  _123
REMARK   49  A    between atoms: _123  and  _124
REMARK   50  A    between atoms: _123  and  _126
REMARK   51  A    between atoms: _129  and  _131
REMARK   52  A    between atoms: _131  and  _132
REMARK   53  A    between atoms: _131  and  _134
REMARK   54  A    between atoms: _134  and  _135
REMARK   55  A    between atoms: _138  and  _140
REMARK   56  A    between atoms: _140  and  _141
REMARK   57  A    between atoms: _140  and  _143
REMARK   58  A    between atoms: _143  and  _144
REMARK   59  A    between atoms: _147  and  _149
REMARK   60  A    between atoms: _149  and  _150
REMARK   61  A    between atoms: _149  and  _152
REMARK   62  A    between atoms: _152  and  _153
REMARK   63  A    between atoms: _155  and  _157
REMARK   64  A    between atoms: _157  and  _158
REMARK   65  A    between atoms: _157  and  _160
REMARK   66  A    between atoms: _160  and  _161
REMARK   67  A    between atoms: _164  and  _166
REMARK   68  A    between atoms: _166  and  _167
REMARK   69  A    between atoms: _166  and  _169
REMARK   70  A    between atoms: _169  and  _170
REMARK   71  A    between atoms: _172  and  _174
REMARK   72  A    between atoms: _174  and  _175
REMARK   73  A    between atoms: _174  and  _177
REMARK   74  A    between atoms: _177  and  _178
REMARK   75  A    between atoms: _183  and  _185
REMARK   76  A    between atoms: _185  and  _186
REMARK   77  A    between atoms: _185  and  _188
REMARK   78  A    between atoms: _188  and  _189
REMARK   79  A    between atoms: _192  and  _194
REMARK   80  A    between atoms: _194  and  _195
REMARK   81  A    between atoms: _194  and  _197
REMARK   82  A    between atoms: _199  and  _201
REMARK   83  A    between atoms: _201  and  _202
REMARK   84  A    between atoms: _204  and  _206
REMARK   85  A    between atoms: _206  and  _207
REMARK   86  A    between atoms: _206  and  _209
REMARK   87  A    between atoms: _209  and  _210
REMARK   88  A    between atoms: _213  and  _215
REMARK   89  A    between atoms: _215  and  _216
REMARK   90  A    between atoms: _215  and  _218
REMARK   91  A    between atoms: _218  and  _219
REMARK   92  A    between atoms: _222  and  _224
REMARK   93  A    between atoms: _224  and  _225
REMARK   94  A    between atoms: _224  and  _227
REMARK   95  A    between atoms: _227  and  _228
REMARK   96  A    between atoms: _230  and  _232
REMARK   97  A    between atoms: _232  and  _233
REMARK   98  A    between atoms: _232  and  _235
REMARK   99  A    between atoms: _237  and  _239
REMARK  100  A    between atoms: _239  and  _240
REMARK  101  A    between atoms: _239  and  _242
REMARK  102  A    between atoms: _242  and  _243
REMARK  103  A    between atoms: _245  and  _247
REMARK  104  A    between atoms: _247  and  _248
REMARK  105  A    between atoms: _247  and  _250
REMARK  106  A    between atoms: _250  and  _251
REMARK  107  A    between atoms: _253  and  _255
REMARK  108  A    between atoms: _255  and  _256
REMARK  109  A    between atoms: _255  and  _258
REMARK  110  A    between atoms: _258  and  _259
REMARK  111  A    between atoms: _264  and  _266
REMARK  112  A    between atoms: _266  and  _267
REMARK  113  A    between atoms: _266  and  _269
REMARK  114  A    between atoms: _269  and  _270
REMARK  115  A    between atoms: _275  and  _276
REMARK  116  A    between atoms: _278  and  _280
REMARK  117  A    between atoms: _280  and  _281
REMARK  118  A    between atoms: _280  and  _283
REMARK  119  A    between atoms: _283  and  _284
REMARK  120  A    between atoms: _287  and  _289
REMARK  121  A    between atoms: _289  and  _290
REMARK  122  A    between atoms: _289  and  _292
REMARK  123  A    between atoms: _292  and  _293
REMARK  124  A    between atoms: _296  and  _298
REMARK  125  A    between atoms: _298  and  _299
REMARK  126  A    between atoms: _298  and  _301
REMARK  127  A    between atoms: _301  and  _302
REMARK  128  A    between atoms: _302  and  _303
REMARK  129  A    between atoms: _303  and  _304
REMARK  130  A    between atoms: _313  and  _315
REMARK  131  A    between atoms: _315  and  _316
REMARK  132  A    between atoms: _315  and  _318
REMARK  133  A    between atoms: _318  and  _319
REMARK  134  A    between atoms: _323  and  _324
REMARK  135  A    between atoms: _329  and  _331
REMARK  136  A    between atoms: _331  and  _332
REMARK  137  A    between atoms: _331  and  _334
REMARK  138  A    between atoms: _334  and  _335
REMARK  139  A    between atoms: _335  and  _336
REMARK  140  A    between atoms: _336  and  _337
REMARK  141  A    between atoms: _346  and  _348
REMARK  142  A    between atoms: _348  and  _349
REMARK  143  A    between atoms: _348  and  _351
REMARK  144  A    between atoms: _351  and  _352
REMARK  145  A    between atoms: _352  and  _353
REMARK  146  A    between atoms: _356  and  _358
REMARK  147  A    between atoms: _358  and  _359
REMARK  148  A    between atoms: _358  and  _361
REMARK  149  A    between atoms: _364  and  _366
REMARK  150  A    between atoms: _366  and  _367
REMARK  151  A    between atoms: _366  and  _369
REMARK  152  A    between atoms: _369  and  _370
REMARK  153  A    between atoms: _375  and  _377
REMARK  154  A    between atoms: _377  and  _378
REMARK  155  A    between atoms: _377  and  _380
REMARK  156  A    between atoms: _380  and  _381
REMARK  157  A    between atoms: _383  and  _385
REMARK  158  A    between atoms: _385  and  _386
REMARK  159  A    between atoms: _385  and  _388
REMARK  160  A    between atoms: _388  and  _389
REMARK  161  A    between atoms: _399  and  _401
REMARK  162  A    between atoms: _401  and  _402
REMARK  163  A    between atoms: _401  and  _404
REMARK  164  A    between atoms: _404  and  _405
REMARK  165  A    between atoms: _408  and  _410
REMARK  166  A    between atoms: _410  and  _411
REMARK  167  A    between atoms: _413  and  _415
REMARK  168  A    between atoms: _415  and  _416
REMARK  169  A    between atoms: _415  and  _418
REMARK  170  A    between atoms: _418  and  _419
REMARK  171  A    between atoms: _424  and  _426
REMARK  172  A    between atoms: _426  and  _427
REMARK  173  A    between atoms: _426  and  _429
REMARK  174  A    between atoms: _429  and  _430
REMARK  175  A    between atoms: _433  and  _435
REMARK  176  A    between atoms: _435  and  _436
REMARK  177  A    between atoms: _435  and  _438
REMARK  178  A    between atoms: _438  and  _439
REMARK  179  A    between atoms: _442  and  _444
REMARK  180  A    between atoms: _444  and  _445
REMARK  181  A    between atoms: _444  and  _447
REMARK  182  A    between atoms: _447  and  _448
REMARK  183  A    between atoms: _448  and  _449
REMARK  184  A    between atoms: _451  and  _453
REMARK  185  A    between atoms: _453  and  _454
REMARK  186  A    between atoms: _453  and  _456
REMARK  187  A    between atoms: _456  and  _457
REMARK  188  A    between atoms: _463  and  _465
REMARK  189  A    between atoms: _465  and  _466
REMARK  190  A    between atoms: _470  and  _471
REMARK  191  A    between atoms: _476  and  _478
REMARK  192  A    between atoms: _478  and  _479
REMARK  193  A    between atoms: _478  and  _481
REMARK  194  A    between atoms: _481  and  _482
REMARK  195  A    between atoms: _485  and  _487
REMARK  196  A    between atoms: _487  and  _488
REMARK  197  A    between atoms: _487  and  _490
REMARK  198  A    between atoms: _490  and  _491
REMARK  199  A    between atoms: _501  and  _503
REMARK  200  A    between atoms: _503  and  _504
REMARK  201  A    between atoms: _503  and  _506
REMARK  202  A    between atoms: _508  and  _510
REMARK  203  A    between atoms: _510  and  _511
REMARK  204  A    between atoms: _510  and  _513
REMARK  205  A    between atoms: _513  and  _514
REMARK  206  A    between atoms: _514  and  _515
REMARK  207  A    between atoms: _518  and  _520
REMARK  208  A    between atoms: _520  and  _521
REMARK  209  A    between atoms: _520  and  _523
REMARK  210  A    between atoms: _523  and  _524
REMARK  211  A    between atoms: _527  and  _529
REMARK  212  A    between atoms: _529  and  _530
REMARK  213  A    between atoms: _529  and  _532
REMARK  214  A    between atoms: _532  and  _533
REMARK  215  A    between atoms: _538  and  _539
REMARK  216  A    between atoms: _541  and  _543
REMARK  217  A    between atoms: _543  and  _544
REMARK  218  A    between atoms: _546  and  _548
REMARK  219  A    between atoms: _548  and  _549
REMARK  220  A    between atoms: _552  and  _554
REMARK  221  A    between atoms: _554  and  _555
REMARK  222  A    between atoms: _554  and  _557
REMARK  223  A    between atoms: _559  and  _561
REMARK  224  A    between atoms: _561  and  _562
REMARK  225  A    between atoms: _561  and  _564
REMARK  226  A    between atoms: _564  and  _565
REMARK  227  A    between atoms: _570  and  _571
REMARK  228  A    between atoms: _573  and  _575
REMARK  229  A    between atoms: _575  and  _576
REMARK  230  A    between atoms: _575  and  _578
REMARK  231  A    between atoms: _578  and  _579
REMARK  232  A    between atoms: _584  and  _586
REMARK  233  A    between atoms: _586  and  _587
REMARK  234  A    between atoms: _586  and  _589
REMARK  235  A    between atoms: _589  and  _590
REMARK  236  A    between atoms: _596  and  _598
REMARK  237  A    between atoms: _598  and  _599
REMARK  238  A    between atoms: _602  and  _604
REMARK  239  A    between atoms: _604  and  _605
REMARK  240  A    between atoms: _607  and  _609
REMARK  241  A    between atoms: _609  and  _610
REMARK  242  A    between atoms: _609  and  _612
REMARK  243  A    between atoms: _612  and  _613
REMARK  244  A    between atoms: _618  and  _619
REMARK  245  A    between atoms: _621  and  _623
REMARK  246  A    between atoms: _623  and  _624
REMARK  247  A    between atoms: _623  and  _626
REMARK  248  A    between atoms: _626  and  _627
REMARK  249  A    between atoms: _629  and  _631
REMARK  250  A    between atoms: _631  and  _632
REMARK  251  A    between atoms: _634  and  _636
REMARK  252  A    between atoms: _636  and  _637
REMARK                            x       y       z     vdW  Elec       q    Type
REMARK                         _______ _______ _______ _____ _____    ______ ____
ROOT
ATOM      1  O   HOH     1      37.779   2.086 -13.098  0.00  0.00    +0.000 OA
ENDROOT
TORSDOF 0
REMARK  Name = ../refined-set-2016/3hkw/3hkw_pocket.pdb
REMARK  252 active torsions:
REMARK  status: ('A' for Active; 'I' for Inactive)
REMARK    1  A    between atoms: _1  and  _3
REMARK    2  A    between atoms: _3  and  _4
REMARK    3  A    between atoms: _3  and  _6
REMARK    4  A    between atoms: _6  and  _7
REMARK    5  A    between atoms: _7  and  _8
REMARK    6  A    between atoms: _8  and  _9
REMARK    7  A    between atoms: _9  and  _10
REMARK    8  A    between atoms: _14  and  _16
REMARK    9  A    between atoms: _16  and  _17
REMARK   10  A    between atoms: _16  and  _19
REMARK   11  A    between atoms: _19  and  _20
REMARK   12  A    between atoms: _20  and  _21
REMARK   13  A    between atoms: _24  and  _26
REMARK   14  A    between atoms: _26  and  _27
REMARK   15  A    between atoms: _26  and  _29
REMARK   16  A    between atoms: _29  and  _30
REMARK   17  A    between atoms: _30  and  _31
REMARK   18  A    between atoms: _31  and  _32
REMARK   19  A    between atoms: _41  and  _43
REMARK   20  A    between atoms: _43  and  _44
REMARK   21  A    between atoms: _46  and  _48
REMARK   22  A    between atoms: _48  and  _49
REMARK   23  A    between atoms: _48  and  _51
REMARK   24  A    between atoms: _51  and  _52
REMARK   25  A    between atoms: _58  and  _60
REMARK   26  A    between atoms: _60  and  _61
REMARK   27  A    between atoms: _60  and  _63
REMARK   28  A    between atoms: _63  and  _64
REMARK   29  A    between atoms: _69  and  _70
REMARK   30  A    between atoms: _72  and  _74
REMARK   31  A    between atoms: _74  and  _75
REMARK   32  A    between atoms: _74  and  _77
REMARK   33  A    between atoms: _77  and  _78
REMARK   34  A    between atoms: _81  and  _82
REMARK   35  A    between atoms: _87  and  _89
REMARK   36  A    between atoms: _89  and  _90
REMARK   37  A    between atoms: _92  and  _94
REMARK   38  A    between atoms: _94  and  _95
REMARK   39  A    between atoms: _94  and  _97
REMARK   40  A    between atoms: _97  and  _98
REMARK   41  A    between atoms: _98  and  _99
REMARK   42  A    between atoms: _104  and  _106
REMARK   43  A    between atoms: _106  and  _107
REMARK   44  A    between atoms: _106  and  _109
REMARK   45  A    between atoms: _109  and  _110
REMARK   46  A    between atoms: _110  and  _111
REMARK   47  A    between atoms: _111  and  _112
REMARK   48  A    between atoms: _121  and  _123
REMARK   49  A    between atoms: _123  and  _124
REMARK   50  A    between atoms: _123  and  _126
REMARK   51  A    between atoms: _129  and  _131
REMARK   52  A    between atoms: _131  and  _132
REMARK   53  A    between atoms: _131  and  _134
REMARK   54  A    between atoms: _134  and  _135
REMARK   55  A    between atoms: _138  and  _140
REMARK   56  A    between atoms: _140  and  _141
REMARK   57  A    between atoms: _140  and  _143
REMARK   58  A    between atoms: _143  and  _144
REMARK   59  A    between atoms: _147  and  _149
REMARK   60  A    between atoms: _149  and  _150
REMARK   61  A    between atoms: _149  and  _152
REMARK   62  A    between atoms: _152  and  _153
REMARK   63  A    between atoms: _155  and  _157
REMARK   64  A    between atoms: _157  and  _158
REMARK   65  A    between atoms: _157  and  _160
REMARK   66  A    between atoms: _160  and  _161
REMARK   67  A    between atoms: _164  and  _166
REMARK   68  A    between atoms: _166  and  _167
REMARK   69  A    between atoms: _166  and  _169
REMARK   70  A    between atoms: _169  and  _170
REMARK   71  A    between atoms: _172  and  _174
REMARK   72  A    between atoms: _174  and  _175
REMARK   73  A    between atoms: _174  and  _177
REMARK   74  A    between atoms: _177  and  _178
REMARK   75  A    between atoms: _183  and  _185
REMARK   76  A    between atoms: _185  and  _186
REMARK   77  A    between atoms: _185  and  _188
REMARK   78  A    between atoms: _188  and  _189
REMARK   79  A    between atoms: _192  and  _194
REMARK   80  A    between atoms: _194  and  _195
REMARK   81  A    between atoms: _194  and  _197
REMARK   82  A    between atoms: _199  and  _201
REMARK   83  A    between atoms: _201  and  _202
REMARK   84  A    between atoms: _204  and  _206
REMARK   85  A    between atoms: _206  and  _207
REMARK   86  A    between atoms: _206  and  _209
REMARK   87  A    between atoms: _209  and  _210
REMARK   88  A    between atoms: _213  and  _215
REMARK   89  A    between atoms: _215  and  _216
REMARK   90  A    between atoms: _215  and  _218
REMARK   91  A    between atoms: _218  and  _219
REMARK   92  A    between atoms: _222  and  _224
REMARK   93  A    between atoms: _224  and  _225
REMARK   94  A    between atoms: _224  and  _227
REMARK   95  A    between atoms: _227  and  _228
REMARK   96  A    between atoms: _230  and  _232
REMARK   97  A    between atoms: _232  and  _233
REMARK   98  A    between atoms: _232  and  _235
REMARK   99  A    between atoms: _237  and  _239
REMARK  100  A    between atoms: _239  and  _240
REMARK  101  A    between atoms: _239  and  _242
REMARK  102  A    between atoms: _242  and  _243
REMARK  103  A    between atoms: _245  and  _247
REMARK  104  A    between atoms: _247  and  _248
REMARK  105  A    between atoms: _247  and  _250
REMARK  106  A    between atoms: _250  and  _251
REMARK  107  A    between atoms: _253  and  _255
REMARK  108  A    between atoms: _255  and  _256
REMARK  109  A    between atoms: _255  and  _258
REMARK  110  A    between atoms: _258  and  _259
REMARK  111  A    between atoms: _264  and  _266
REMARK  112  A    between atoms: _266  and  _267
REMARK  113  A    between atoms: _266  and  _269
REMARK  114  A    between atoms: _269  and  _270
REMARK  115  A    between atoms: _275  and  _276
REMARK  116  A    between atoms: _278  and  _280
REMARK  117  A    between atoms: _280  and  _281
REMARK  118  A    between atoms: _280  and  _283
REMARK  119  A    between atoms: _283  and  _284
REMARK  120  A    between atoms: _287  and  _289
REMARK  121  A    between atoms: _289  and  _290
REMARK  122  A    between atoms: _289  and  _292
REMARK  123  A    between atoms: _292  and  _293
REMARK  124  A    between atoms: _296  and  _298
REMARK  125  A    between atoms: _298  and  _299
REMARK  126  A    between atoms: _298  and  _301
REMARK  127  A    between atoms: _301  and  _302
REMARK  128  A    between atoms: _302  and  _303
REMARK  129  A    between atoms: _303  and  _304
REMARK  130  A    between atoms: _313  and  _315
REMARK  131  A    between atoms: _315  and  _316
REMARK  132  A    between atoms: _315  and  _318
REMARK  133  A    between atoms: _318  and  _319
REMARK  134  A    between atoms: _323  and  _324
REMARK  135  A    between atoms: _329  and  _331
REMARK  136  A    between atoms: _331  and  _332
REMARK  137  A    between atoms: _331  and  _334
REMARK  138  A    between atoms: _334  and  _335
REMARK  139  A    between atoms: _335  and  _336
REMARK  140  A    between atoms: _336  and  _337
REMARK  141  A    between atoms: _346  and  _348
REMARK  142  A    between atoms: _348  and  _349
REMARK  143  A    between atoms: _348  and  _351
REMARK  144  A    between atoms: _351  and  _352
REMARK  145  A    between atoms: _352  and  _353
REMARK  146  A    between atoms: _356  and  _358
REMARK  147  A    between atoms: _358  and  _359
REMARK  148  A    between atoms: _358  and  _361
REMARK  149  A    between atoms: _364  and  _366
REMARK  150  A    between atoms: _366  and  _367
REMARK  151  A    between atoms: _366  and  _369
REMARK  152  A    between atoms: _369  and  _370
REMARK  153  A    between atoms: _375  and  _377
REMARK  154  A    between atoms: _377  and  _378
REMARK  155  A    between atoms: _377  and  _380
REMARK  156  A    between atoms: _380  and  _381
REMARK  157  A    between atoms: _383  and  _385
REMARK  158  A    between atoms: _385  and  _386
REMARK  159  A    between atoms: _385  and  _388
REMARK  160  A    between atoms: _388  and  _389
REMARK  161  A    between atoms: _399  and  _401
REMARK  162  A    between atoms: _401  and  _402
REMARK  163  A    between atoms: _401  and  _404
REMARK  164  A    between atoms: _404  and  _405
REMARK  165  A    between atoms: _408  and  _410
REMARK  166  A    between atoms: _410  and  _411
REMARK  167  A    between atoms: _413  and  _415
REMARK  168  A    between atoms: _415  and  _416
REMARK  169  A    between atoms: _415  and  _418
REMARK  170  A    between atoms: _418  and  _419
REMARK  171  A    between atoms: _424  and  _426
REMARK  172  A    between atoms: _426  and  _427
REMARK  173  A    between atoms: _426  and  _429
REMARK  174  A    between atoms: _429  and  _430
REMARK  175  A    between atoms: _433  and  _435
REMARK  176  A    between atoms: _435  and  _436
REMARK  177  A    between atoms: _435  and  _438
REMARK  178  A    between atoms: _438  and  _439
REMARK  179  A    between atoms: _442  and  _444
REMARK  180  A    between atoms: _444  and  _445
REMARK  181  A    between atoms: _444  and  _447
REMARK  182  A    between atoms: _447  and  _448
REMARK  183  A    between atoms: _448  and  _449
REMARK  184  A    between atoms: _451  and  _453
REMARK  185  A    between atoms: _453  and  _454
REMARK  186  A    between atoms: _453  and  _456
REMARK  187  A    between atoms: _456  and  _457
REMARK  188  A    between atoms: _463  and  _465
REMARK  189  A    between atoms: _465  and  _466
REMARK  190  A    between atoms: _470  and  _471
REMARK  191  A    between atoms: _476  and  _478
REMARK  192  A    between atoms: _478  and  _479
REMARK  193  A    between atoms: _478  and  _481
REMARK  194  A    between atoms: _481  and  _482
REMARK  195  A    between atoms: _485  and  _487
REMARK  196  A    between atoms: _487  and  _488
REMARK  197  A    between atoms: _487  and  _490
REMARK  198  A    between atoms: _490  and  _491
REMARK  199  A    between atoms: _501  and  _503
REMARK  200  A    between atoms: _503  and  _504
REMARK  201  A    between atoms: _503  and  _506
REMARK  202  A    between atoms: _508  and  _510
REMARK  203  A    between atoms: _510  and  _511
REMARK  204  A    between atoms: _510  and  _513
REMARK  205  A    between atoms: _513  and  _514
REMARK  206  A    between atoms: _514  and  _515
REMARK  207  A    between atoms: _518  and  _520
REMARK  208  A    between atoms: _520  and  _521
REMARK  209  A    between atoms: _520  and  _523
REMARK  210  A    between atoms: _523  and  _524
REMARK  211  A    between atoms: _527  and  _529
REMARK  212  A    between atoms: _529  and  _530
REMARK  213  A    between atoms: _529  and  _532
REMARK  214  A    between atoms: _532  and  _533
REMARK  215  A    between atoms: _538  and  _539
REMARK  216  A    between atoms: _541  and  _543
REMARK  217  A    between atoms: _543  and  _544
REMARK  218  A    between atoms: _546  and  _548
REMARK  219  A    between atoms: _548  and  _549
REMARK  220  A    between atoms: _552  and  _554
REMARK  221  A    between atoms: _554  and  _555
REMARK  222  A    between atoms: _554  and  _557
REMARK  223  A    between atoms: _559  and  _561
REMARK  224  A    between atoms: _561  and  _562
REMARK  225  A    between atoms: _561  and  _564
REMARK  226  A    between atoms: _564  and  _565
REMARK  227  A    between atoms: _570  and  _571
REMARK  228  A    between atoms: _573  and  _575
REMARK  229  A    between atoms: _575  and  _576
REMARK  230  A    between atoms: _575  and  _578
REMARK  231  A    between atoms: _578  and  _579
REMARK  232  A    between atoms: _584  and  _586
REMARK  233  A    between atoms: _586  and  _587
REMARK  234  A    between atoms: _586  and  _589
REMARK  235  A    between atoms: _589  and  _590
REMARK  236  A    between atoms: _596  and  _598
REMARK  237  A    between atoms: _598  and  _599
REMARK  238  A    between atoms: _602  and  _604
REMARK  239  A    between atoms: _604  and  _605
REMARK  240  A    between atoms: _607  and  _609
REMARK  241  A    between atoms: _609  and  _610
REMARK  242  A    between atoms: _609  and  _612
REMARK  243  A    between atoms: _612  and  _613
REMARK  244  A    between atoms: _618  and  _619
REMARK  245  A    between atoms: _621  and  _623
REMARK  246  A    between atoms: _623  and  _624
REMARK  247  A    between atoms: _623  and  _626
REMARK  248  A    between atoms: _626  and  _627
REMARK  249  A    between atoms: _629  and  _631
REMARK  250  A    between atoms: _631  and  _632
REMARK  251  A    between atoms: _634  and  _636
REMARK  252  A    between atoms: _636  and  _637
REMARK                            x       y       z     vdW  Elec       q    Type
REMARK                         _______ _______ _______ _____ _____    ______ ____
ROOT
ATOM      1  O   HOH     1      41.828   7.949 -26.019  0.00  0.00    +0.000 OA
ENDROOT
TORSDOF 0
REMARK  Name = ../refined-set-2016/3hkw/3hkw_pocket.pdb
REMARK  252 active torsions:
REMARK  status: ('A' for Active; 'I' for Inactive)
REMARK    1  A    between atoms: _1  and  _3
REMARK    2  A    between atoms: _3  and  _4
REMARK    3  A    between atoms: _3  and  _6
REMARK    4  A    between atoms: _6  and  _7
REMARK    5  A    between atoms: _7  and  _8
REMARK    6  A    between atoms: _8  and  _9
REMARK    7  A    between atoms: _9  and  _10
REMARK    8  A    between atoms: _14  and  _16
REMARK    9  A    between atoms: _16  and  _17
REMARK   10  A    between atoms: _16  and  _19
REMARK   11  A    between atoms: _19  and  _20
REMARK   12  A    between atoms: _20  and  _21
REMARK   13  A    between atoms: _24  and  _26
REMARK   14  A    between atoms: _26  and  _27
REMARK   15  A    between atoms: _26  and  _29
REMARK   16  A    between atoms: _29  and  _30
REMARK   17  A    between atoms: _30  and  _31
REMARK   18  A    between atoms: _31  and  _32
REMARK   19  A    between atoms: _41  and  _43
REMARK   20  A    between atoms: _43  and  _44
REMARK   21  A    between atoms: _46  and  _48
REMARK   22  A    between atoms: _48  and  _49
REMARK   23  A    between atoms: _48  and  _51
REMARK   24  A    between atoms: _51  and  _52
REMARK   25  A    between atoms: _58  and  _60
REMARK   26  A    between atoms: _60  and  _61
REMARK   27  A    between atoms: _60  and  _63
REMARK   28  A    between atoms: _63  and  _64
REMARK   29  A    between atoms: _69  and  _70
REMARK   30  A    between atoms: _72  and  _74
REMARK   31  A    between atoms: _74  and  _75
REMARK   32  A    between atoms: _74  and  _77
REMARK   33  A    between atoms: _77  and  _78
REMARK   34  A    between atoms: _81  and  _82
REMARK   35  A    between atoms: _87  and  _89
REMARK   36  A    between atoms: _89  and  _90
REMARK   37  A    between atoms: _92  and  _94
REMARK   38  A    between atoms: _94  and  _95
REMARK   39  A    between atoms: _94  and  _97
REMARK   40  A    between atoms: _97  and  _98
REMARK   41  A    between atoms: _98  and  _99
REMARK   42  A    between atoms: _104  and  _106
REMARK   43  A    between atoms: _106  and  _107
REMARK   44  A    between atoms: _106  and  _109
REMARK   45  A    between atoms: _109  and  _110
REMARK   46  A    between atoms: _110  and  _111
REMARK   47  A    between atoms: _111  and  _112
REMARK   48  A    between atoms: _121  and  _123
REMARK   49  A    between atoms: _123  and  _124
REMARK   50  A    between atoms: _123  and  _126
REMARK   51  A    between atoms: _129  and  _131
REMARK   52  A    between atoms: _131  and  _132
REMARK   53  A    between atoms: _131  and  _134
REMARK   54  A    between atoms: _134  and  _135
REMARK   55  A    between atoms: _138  and  _140
REMARK   56  A    between atoms: _140  and  _141
REMARK   57  A    between atoms: _140  and  _143
REMARK   58  A    between atoms: _143  and  _144
REMARK   59  A    between atoms: _147  and  _149
REMARK   60  A    between atoms: _149  and  _150
REMARK   61  A    between atoms: _149  and  _152
REMARK   62  A    between atoms: _152  and  _153
REMARK   63  A    between atoms: _155  and  _157
REMARK   64  A    between atoms: _157  and  _158
REMARK   65  A    between atoms: _157  and  _160
REMARK   66  A    between atoms: _160  and  _161
REMARK   67  A    between atoms: _164  and  _166
REMARK   68  A    between atoms: _166  and  _167
REMARK   69  A    between atoms: _166  and  _169
REMARK   70  A    between atoms: _169  and  _170
REMARK   71  A    between atoms: _172  and  _174
REMARK   72  A    between atoms: _174  and  _175
REMARK   73  A    between atoms: _174  and  _177
REMARK   74  A    between atoms: _177  and  _178
REMARK   75  A    between atoms: _183  and  _185
REMARK   76  A    between atoms: _185  and  _186
REMARK   77  A    between atoms: _185  and  _188
REMARK   78  A    between atoms: _188  and  _189
REMARK   79  A    between atoms: _192  and  _194
REMARK   80  A    between atoms: _194  and  _195
REMARK   81  A    between atoms: _194  and  _197
REMARK   82  A    between atoms: _199  and  _201
REMARK   83  A    between atoms: _201  and  _202
REMARK   84  A    between atoms: _204  and  _206
REMARK   85  A    between atoms: _206  and  _207
REMARK   86  A    between atoms: _206  and  _209
REMARK   87  A    between atoms: _209  and  _210
REMARK   88  A    between atoms: _213  and  _215
REMARK   89  A    between atoms: _215  and  _216
REMARK   90  A    between atoms: _215  and  _218
REMARK   91  A    between atoms: _218  and  _219
REMARK   92  A    between atoms: _222  and  _224
REMARK   93  A    between atoms: _224  and  _225
REMARK   94  A    between atoms: _224  and  _227
REMARK   95  A    between atoms: _227  and  _228
REMARK   96  A    between atoms: _230  and  _232
REMARK   97  A    between atoms: _232  and  _233
REMARK   98  A    between atoms: _232  and  _235
REMARK   99  A    between atoms: _237  and  _239
REMARK  100  A    between atoms: _239  and  _240
REMARK  101  A    between atoms: _239  and  _242
REMARK  102  A    between atoms: _242  and  _243
REMARK  103  A    between atoms: _245  and  _247
REMARK  104  A    between atoms: _247  and  _248
REMARK  105  A    between atoms: _247  and  _250
REMARK  106  A    between atoms: _250  and  _251
REMARK  107  A    between atoms: _253  and  _255
REMARK  108  A    between atoms: _255  and  _256
REMARK  109  A    between atoms: _255  and  _258
REMARK  110  A    between atoms: _258  and  _259
REMARK  111  A    between atoms: _264  and  _266
REMARK  112  A    between atoms: _266  and  _267
REMARK  113  A    between atoms: _266  and  _269
REMARK  114  A    between atoms: _269  and  _270
REMARK  115  A    between atoms: _275  and  _276
REMARK  116  A    between atoms: _278  and  _280
REMARK  117  A    between atoms: _280  and  _281
REMARK  118  A    between atoms: _280  and  _283
REMARK  119  A    between atoms: _283  and  _284
REMARK  120  A    between atoms: _287  and  _289
REMARK  121  A    between atoms: _289  and  _290
REMARK  122  A    between atoms: _289  and  _292
REMARK  123  A    between atoms: _292  and  _293
REMARK  124  A    between atoms: _296  and  _298
REMARK  125  A    between atoms: _298  and  _299
REMARK  126  A    between atoms: _298  and  _301
REMARK  127  A    between atoms: _301  and  _302
REMARK  128  A    between atoms: _302  and  _303
REMARK  129  A    between atoms: _303  and  _304
REMARK  130  A    between atoms: _313  and  _315
REMARK  131  A    between atoms: _315  and  _316
REMARK  132  A    between atoms: _315  and  _318
REMARK  133  A    between atoms: _318  and  _319
REMARK  134  A    between atoms: _323  and  _324
REMARK  135  A    between atoms: _329  and  _331
REMARK  136  A    between atoms: _331  and  _332
REMARK  137  A    between atoms: _331  and  _334
REMARK  138  A    between atoms: _334  and  _335
REMARK  139  A    between atoms: _335  and  _336
REMARK  140  A    between atoms: _336  and  _337
REMARK  141  A    between atoms: _346  and  _348
REMARK  142  A    between atoms: _348  and  _349
REMARK  143  A    between atoms: _348  and  _351
REMARK  144  A    between atoms: _351  and  _352
REMARK  145  A    between atoms: _352  and  _353
REMARK  146  A    between atoms: _356  and  _358
REMARK  147  A    between atoms: _358  and  _359
REMARK  148  A    between atoms: _358  and  _361
REMARK  149  A    between atoms: _364  and  _366
REMARK  150  A    between atoms: _366  and  _367
REMARK  151  A    between atoms: _366  and  _369
REMARK  152  A    between atoms: _369  and  _370
REMARK  153  A    between atoms: _375  and  _377
REMARK  154  A    between atoms: _377  and  _378
REMARK  155  A    between atoms: _377  and  _380
REMARK  156  A    between atoms: _380  and  _381
REMARK  157  A    between atoms: _383  and  _385
REMARK  158  A    between atoms: _385  and  _386
REMARK  159  A    between atoms: _385  and  _388
REMARK  160  A    between atoms: _388  and  _389
REMARK  161  A    between atoms: _399  and  _401
REMARK  162  A    between atoms: _401  and  _402
REMARK  163  A    between atoms: _401  and  _404
REMARK  164  A    between atoms: _404  and  _405
REMARK  165  A    between atoms: _408  and  _410
REMARK  166  A    between atoms: _410  and  _411
REMARK  167  A    between atoms: _413  and  _415
REMARK  168  A    between atoms: _415  and  _416
REMARK  169  A    between atoms: _415  and  _418
REMARK  170  A    between atoms: _418  and  _419
REMARK  171  A    between atoms: _424  and  _426
REMARK  172  A    between atoms: _426  and  _427
REMARK  173  A    between atoms: _426  and  _429
REMARK  174  A    between atoms: _429  and  _430
REMARK  175  A    between atoms: _433  and  _435
REMARK  176  A    between atoms: _435  and  _436
REMARK  177  A    between atoms: _435  and  _438
REMARK  178  A    between atoms: _438  and  _439
REMARK  179  A    between atoms: _442  and  _444
REMARK  180  A    between atoms: _444  and  _445
REMARK  181  A    between atoms: _444  and  _447
REMARK  182  A    between atoms: _447  and  _448
REMARK  183  A    between atoms: _448  and  _449
REMARK  184  A    between atoms: _451  and  _453
REMARK  185  A    between atoms: _453  and  _454
REMARK  186  A    between atoms: _453  and  _456
REMARK  187  A    between atoms: _456  and  _457
REMARK  188  A    between atoms: _463  and  _465
REMARK  189  A    between atoms: _465  and  _466
REMARK  190  A    between atoms: _470  and  _471
REMARK  191  A    between atoms: _476  and  _478
REMARK  192  A    between atoms: _478  and  _479
REMARK  193  A    between atoms: _478  and  _481
REMARK  194  A    between atoms: _481  and  _482
REMARK  195  A    between atoms: _485  and  _487
REMARK  196  A    between atoms: _487  and  _488
REMARK  197  A    between atoms: _487  and  _490
REMARK  198  A    between atoms: _490  and  _491
REMARK  199  A    between atoms: _501  and  _503
REMARK  200  A    between atoms: _503  and  _504
REMARK  201  A    between atoms: _503  and  _506
REMARK  202  A    between atoms: _508  and  _510
REMARK  203  A    between atoms: _510  and  _511
REMARK  204  A    between atoms: _510  and  _513
REMARK  205  A    between atoms: _513  and  _514
REMARK  206  A    between atoms: _514  and  _515
REMARK  207  A    between atoms: _518  and  _520
REMARK  208  A    between atoms: _520  and  _521
REMARK  209  A    between atoms: _520  and  _523
REMARK  210  A    between atoms: _523  and  _524
REMARK  211  A    between atoms: _527  and  _529
REMARK  212  A    between atoms: _529  and  _530
REMARK  213  A    between atoms: _529  and  _532
REMARK  214  A    between atoms: _532  and  _533
REMARK  215  A    between atoms: _538  and  _539
REMARK  216  A    between atoms: _541  and  _543
REMARK  217  A    between atoms: _543  and  _544
REMARK  218  A    between atoms: _546  and  _548
REMARK  219  A    between atoms: _548  and  _549
REMARK  220  A    between atoms: _552  and  _554
REMARK  221  A    between atoms: _554  and  _555
REMARK  222  A    between atoms: _554  and  _557
REMARK  223  A    between atoms: _559  and  _561
REMARK  224  A    between atoms: _561  and  _562
REMARK  225  A    between atoms: _561  and  _564
REMARK  226  A    between atoms: _564  and  _565
REMARK  227  A    between atoms: _570  and  _571
REMARK  228  A    between atoms: _573  and  _575
REMARK  229  A    between atoms: _575  and  _576
REMARK  230  A    between atoms: _575  and  _578
REMARK  231  A    between atoms: _578  and  _579
REMARK  232  A    between atoms: _584  and  _586
REMARK  233  A    between atoms: _586  and  _587
REMARK  234  A    between atoms: _586  and  _589
REMARK  235  A    between atoms: _589  and  _590
REMARK  236  A    between atoms: _596  and  _598
REMARK  237  A    between atoms: _598  and  _599
REMARK  238  A    between atoms: _602  and  _604
REMARK  239  A    between atoms: _604  and  _605
REMARK  240  A    between atoms: _607  and  _609
REMARK  241  A    between atoms: _609  and  _610
REMARK  242  A    between atoms: _609  and  _612
REMARK  243  A    between atoms: _612  and  _613
REMARK  244  A    between atoms: _618  and  _619
REMARK  245  A    between atoms: _621  and  _623
REMARK  246  A    between atoms: _623  and  _624
REMARK  247  A    between atoms: _623  and  _626
REMARK  248  A    between atoms: _626  and  _627
REMARK  249  A    between atoms: _629  and  _631
REMARK  250  A    between atoms: _631  and  _632
REMARK  251  A    between atoms: _634  and  _636
REMARK  252  A    between atoms: _636  and  _637
REMARK                            x       y       z     vdW  Elec       q    Type
REMARK                         _______ _______ _______ _____ _____    ______ ____
ROOT
ATOM      1  O   HOH     1      40.664   2.118 -11.709  0.00  0.00    +0.000 OA
ENDROOT
TORSDOF 0
REMARK  Name = ../refined-set-2016/3hkw/3hkw_pocket.pdb
REMARK  252 active torsions:
REMARK  status: ('A' for Active; 'I' for Inactive)
REMARK    1  A    between atoms: _1  and  _3
REMARK    2  A    between atoms: _3  and  _4
REMARK    3  A    between atoms: _3  and  _6
REMARK    4  A    between atoms: _6  and  _7
REMARK    5  A    between atoms: _7  and  _8
REMARK    6  A    between atoms: _8  and  _9
REMARK    7  A    between atoms: _9  and  _10
REMARK    8  A    between atoms: _14  and  _16
REMARK    9  A    between atoms: _16  and  _17
REMARK   10  A    between atoms: _16  and  _19
REMARK   11  A    between atoms: _19  and  _20
REMARK   12  A    between atoms: _20  and  _21
REMARK   13  A    between atoms: _24  and  _26
REMARK   14  A    between atoms: _26  and  _27
REMARK   15  A    between atoms: _26  and  _29
REMARK   16  A    between atoms: _29  and  _30
REMARK   17  A    between atoms: _30  and  _31
REMARK   18  A    between atoms: _31  and  _32
REMARK   19  A    between atoms: _41  and  _43
REMARK   20  A    between atoms: _43  and  _44
REMARK   21  A    between atoms: _46  and  _48
REMARK   22  A    between atoms: _48  and  _49
REMARK   23  A    between atoms: _48  and  _51
REMARK   24  A    between atoms: _51  and  _52
REMARK   25  A    between atoms: _58  and  _60
REMARK   26  A    between atoms: _60  and  _61
REMARK   27  A    between atoms: _60  and  _63
REMARK   28  A    between atoms: _63  and  _64
REMARK   29  A    between atoms: _69  and  _70
REMARK   30  A    between atoms: _72  and  _74
REMARK   31  A    between atoms: _74  and  _75
REMARK   32  A    between atoms: _74  and  _77
REMARK   33  A    between atoms: _77  and  _78
REMARK   34  A    between atoms: _81  and  _82
REMARK   35  A    between atoms: _87  and  _89
REMARK   36  A    between atoms: _89  and  _90
REMARK   37  A    between atoms: _92  and  _94
REMARK   38  A    between atoms: _94  and  _95
REMARK   39  A    between atoms: _94  and  _97
REMARK   40  A    between atoms: _97  and  _98
REMARK   41  A    between atoms: _98  and  _99
REMARK   42  A    between atoms: _104  and  _106
REMARK   43  A    between atoms: _106  and  _107
REMARK   44  A    between atoms: _106  and  _109
REMARK   45  A    between atoms: _109  and  _110
REMARK   46  A    between atoms: _110  and  _111
REMARK   47  A    between atoms: _111  and  _112
REMARK   48  A    between atoms: _121  and  _123
REMARK   49  A    between atoms: _123  and  _124
REMARK   50  A    between atoms: _123  and  _126
REMARK   51  A    between atoms: _129  and  _131
REMARK   52  A    between atoms: _131  and  _132
REMARK   53  A    between atoms: _131  and  _134
REMARK   54  A    between atoms: _134  and  _135
REMARK   55  A    between atoms: _138  and  _140
REMARK   56  A    between atoms: _140  and  _141
REMARK   57  A    between atoms: _140  and  _143
REMARK   58  A    between atoms: _143  and  _144
REMARK   59  A    between atoms: _147  and  _149
REMARK   60  A    between atoms: _149  and  _150
REMARK   61  A    between atoms: _149  and  _152
REMARK   62  A    between atoms: _152  and  _153
REMARK   63  A    between atoms: _155  and  _157
REMARK   64  A    between atoms: _157  and  _158
REMARK   65  A    between atoms: _157  and  _160
REMARK   66  A    between atoms: _160  and  _161
REMARK   67  A    between atoms: _164  and  _166
REMARK   68  A    between atoms: _166  and  _167
REMARK   69  A    between atoms: _166  and  _169
REMARK   70  A    between atoms: _169  and  _170
REMARK   71  A    between atoms: _172  and  _174
REMARK   72  A    between atoms: _174  and  _175
REMARK   73  A    between atoms: _174  and  _177
REMARK   74  A    between atoms: _177  and  _178
REMARK   75  A    between atoms: _183  and  _185
REMARK   76  A    between atoms: _185  and  _186
REMARK   77  A    between atoms: _185  and  _188
REMARK   78  A    between atoms: _188  and  _189
REMARK   79  A    between atoms: _192  and  _194
REMARK   80  A    between atoms: _194  and  _195
REMARK   81  A    between atoms: _194  and  _197
REMARK   82  A    between atoms: _199  and  _201
REMARK   83  A    between atoms: _201  and  _202
REMARK   84  A    between atoms: _204  and  _206
REMARK   85  A    between atoms: _206  and  _207
REMARK   86  A    between atoms: _206  and  _209
REMARK   87  A    between atoms: _209  and  _210
REMARK   88  A    between atoms: _213  and  _215
REMARK   89  A    between atoms: _215  and  _216
REMARK   90  A    between atoms: _215  and  _218
REMARK   91  A    between atoms: _218  and  _219
REMARK   92  A    between atoms: _222  and  _224
REMARK   93  A    between atoms: _224  and  _225
REMARK   94  A    between atoms: _224  and  _227
REMARK   95  A    between atoms: _227  and  _228
REMARK   96  A    between atoms: _230  and  _232
REMARK   97  A    between atoms: _232  and  _233
REMARK   98  A    between atoms: _232  and  _235
REMARK   99  A    between atoms: _237  and  _239
REMARK  100  A    between atoms: _239  and  _240
REMARK  101  A    between atoms: _239  and  _242
REMARK  102  A    between atoms: _242  and  _243
REMARK  103  A    between atoms: _245  and  _247
REMARK  104  A    between atoms: _247  and  _248
REMARK  105  A    between atoms: _247  and  _250
REMARK  106  A    between atoms: _250  and  _251
REMARK  107  A    between atoms: _253  and  _255
REMARK  108  A    between atoms: _255  and  _256
REMARK  109  A    between atoms: _255  and  _258
REMARK  110  A    between atoms: _258  and  _259
REMARK  111  A    between atoms: _264  and  _266
REMARK  112  A    between atoms: _266  and  _267
REMARK  113  A    between atoms: _266  and  _269
REMARK  114  A    between atoms: _269  and  _270
REMARK  115  A    between atoms: _275  and  _276
REMARK  116  A    between atoms: _278  and  _280
REMARK  117  A    between atoms: _280  and  _281
REMARK  118  A    between atoms: _280  and  _283
REMARK  119  A    between atoms: _283  and  _284
REMARK  120  A    between atoms: _287  and  _289
REMARK  121  A    between atoms: _289  and  _290
REMARK  122  A    between atoms: _289  and  _292
REMARK  123  A    between atoms: _292  and  _293
REMARK  124  A    between atoms: _296  and  _298
REMARK  125  A    between atoms: _298  and  _299
REMARK  126  A    between atoms: _298  and  _301
REMARK  127  A    between atoms: _301  and  _302
REMARK  128  A    between atoms: _302  and  _303
REMARK  129  A    between atoms: _303  and  _304
REMARK  130  A    between atoms: _313  and  _315
REMARK  131  A    between atoms: _315  and  _316
REMARK  132  A    between atoms: _315  and  _318
REMARK  133  A    between atoms: _318  and  _319
REMARK  134  A    between atoms: _323  and  _324
REMARK  135  A    between atoms: _329  and  _331
REMARK  136  A    between atoms: _331  and  _332
REMARK  137  A    between atoms: _331  and  _334
REMARK  138  A    between atoms: _334  and  _335
REMARK  139  A    between atoms: _335  and  _336
REMARK  140  A    between atoms: _336  and  _337
REMARK  141  A    between atoms: _346  and  _348
REMARK  142  A    between atoms: _348  and  _349
REMARK  143  A    between atoms: _348  and  _351
REMARK  144  A    between atoms: _351  and  _352
REMARK  145  A    between atoms: _352  and  _353
REMARK  146  A    between atoms: _356  and  _358
REMARK  147  A    between atoms: _358  and  _359
REMARK  148  A    between atoms: _358  and  _361
REMARK  149  A    between atoms: _364  and  _366
REMARK  150  A    between atoms: _366  and  _367
REMARK  151  A    between atoms: _366  and  _369
REMARK  152  A    between atoms: _369  and  _370
REMARK  153  A    between atoms: _375  and  _377
REMARK  154  A    between atoms: _377  and  _378
REMARK  155  A    between atoms: _377  and  _380
REMARK  156  A    between atoms: _380  and  _381
REMARK  157  A    between atoms: _383  and  _385
REMARK  158  A    between atoms: _385  and  _386
REMARK  159  A    between atoms: _385  and  _388
REMARK  160  A    between atoms: _388  and  _389
REMARK  161  A    between atoms: _399  and  _401
REMARK  162  A    between atoms: _401  and  _402
REMARK  163  A    between atoms: _401  and  _404
REMARK  164  A    between atoms: _404  and  _405
REMARK  165  A    between atoms: _408  and  _410
REMARK  166  A    between atoms: _410  and  _411
REMARK  167  A    between atoms: _413  and  _415
REMARK  168  A    between atoms: _415  and  _416
REMARK  169  A    between atoms: _415  and  _418
REMARK  170  A    between atoms: _418  and  _419
REMARK  171  A    between atoms: _424  and  _426
REMARK  172  A    between atoms: _426  and  _427
REMARK  173  A    between atoms: _426  and  _429
REMARK  174  A    between atoms: _429  and  _430
REMARK  175  A    between atoms: _433  and  _435
REMARK  176  A    between atoms: _435  and  _436
REMARK  177  A    between atoms: _435  and  _438
REMARK  178  A    between atoms: _438  and  _439
REMARK  179  A    between atoms: _442  and  _444
REMARK  180  A    between atoms: _444  and  _445
REMARK  181  A    between atoms: _444  and  _447
REMARK  182  A    between atoms: _447  and  _448
REMARK  183  A    between atoms: _448  and  _449
REMARK  184  A    between atoms: _451  and  _453
REMARK  185  A    between atoms: _453  and  _454
REMARK  186  A    between atoms: _453  and  _456
REMARK  187  A    between atoms: _456  and  _457
REMARK  188  A    between atoms: _463  and  _465
REMARK  189  A    between atoms: _465  and  _466
REMARK  190  A    between atoms: _470  and  _471
REMARK  191  A    between atoms: _476  and  _478
REMARK  192  A    between atoms: _478  and  _479
REMARK  193  A    between atoms: _478  and  _481
REMARK  194  A    between atoms: _481  and  _482
REMARK  195  A    between atoms: _485  and  _487
REMARK  196  A    between atoms: _487  and  _488
REMARK  197  A    between atoms: _487  and  _490
REMARK  198  A    between atoms: _490  and  _491
REMARK  199  A    between atoms: _501  and  _503
REMARK  200  A    between atoms: _503  and  _504
REMARK  201  A    between atoms: _503  and  _506
REMARK  202  A    between atoms: _508  and  _510
REMARK  203  A    between atoms: _510  and  _511
REMARK  204  A    between atoms: _510  and  _513
REMARK  205  A    between atoms: _513  and  _514
REMARK  206  A    between atoms: _514  and  _515
REMARK  207  A    between atoms: _518  and  _520
REMARK  208  A    between atoms: _520  and  _521
REMARK  209  A    between atoms: _520  and  _523
REMARK  210  A    between atoms: _523  and  _524
REMARK  211  A    between atoms: _527  and  _529
REMARK  212  A    between atoms: _529  and  _530
REMARK  213  A    between atoms: _529  and  _532
REMARK  214  A    between atoms: _532  and  _533
REMARK  215  A    between atoms: _538  and  _539
REMARK  216  A    between atoms: _541  and  _543
REMARK  217  A    between atoms: _543  and  _544
REMARK  218  A    between atoms: _546  and  _548
REMARK  219  A    between atoms: _548  and  _549
REMARK  220  A    between atoms: _552  and  _554
REMARK  221  A    between atoms: _554  and  _555
REMARK  222  A    between atoms: _554  and  _557
REMARK  223  A    between atoms: _559  and  _561
REMARK  224  A    between atoms: _561  and  _562
REMARK  225  A    between atoms: _561  and  _564
REMARK  226  A    between atoms: _564  and  _565
REMARK  227  A    between atoms: _570  and  _571
REMARK  228  A    between atoms: _573  and  _575
REMARK  229  A    between atoms: _575  and  _576
REMARK  230  A    between atoms: _575  and  _578
REMARK  231  A    between atoms: _578  and  _579
REMARK  232  A    between atoms: _584  and  _586
REMARK  233  A    between atoms: _586  and  _587
REMARK  234  A    between atoms: _586  and  _589
REMARK  235  A    between atoms: _589  and  _590
REMARK  236  A    between atoms: _596  and  _598
REMARK  237  A    between atoms: _598  and  _599
REMARK  238  A    between atoms: _602  and  _604
REMARK  239  A    between atoms: _604  and  _605
REMARK  240  A    between atoms: _607  and  _609
REMARK  241  A    between atoms: _609  and  _610
REMARK  242  A    between atoms: _609  and  _612
REMARK  243  A    between atoms: _612  and  _613
REMARK  244  A    between atoms: _618  and  _619
REMARK  245  A    between atoms: _621  and  _623
REMARK  246  A    between atoms: _623  and  _624
REMARK  247  A    between atoms: _623  and  _626
REMARK  248  A    between atoms: _626  and  _627
REMARK  249  A    between atoms: _629  and  _631
REMARK  250  A    between atoms: _631  and  _632
REMARK  251  A    between atoms: _634  and  _636
REMARK  252  A    between atoms: _636  and  _637
REMARK                            x       y       z     vdW  Elec       q    Type
REMARK                         _______ _______ _______ _____ _____    ______ ____
ROOT
ATOM      1  O   HOH     1      41.836   1.671 -16.067  0.00  0.00    +0.000 OA
ENDROOT
TORSDOF 0
REMARK  Name = ../refined-set-2016/3hkw/3hkw_pocket.pdb
REMARK  252 active torsions:
REMARK  status: ('A' for Active; 'I' for Inactive)
REMARK    1  A    between atoms: _1  and  _3
REMARK    2  A    between atoms: _3  and  _4
REMARK    3  A    between atoms: _3  and  _6
REMARK    4  A    between atoms: _6  and  _7
REMARK    5  A    between atoms: _7  and  _8
REMARK    6  A    between atoms: _8  and  _9
REMARK    7  A    between atoms: _9  and  _10
REMARK    8  A    between atoms: _14  and  _16
REMARK    9  A    between atoms: _16  and  _17
REMARK   10  A    between atoms: _16  and  _19
REMARK   11  A    between atoms: _19  and  _20
REMARK   12  A    between atoms: _20  and  _21
REMARK   13  A    between atoms: _24  and  _26
REMARK   14  A    between atoms: _26  and  _27
REMARK   15  A    between atoms: _26  and  _29
REMARK   16  A    between atoms: _29  and  _30
REMARK   17  A    between atoms: _30  and  _31
REMARK   18  A    between atoms: _31  and  _32
REMARK   19  A    between atoms: _41  and  _43
REMARK   20  A    between atoms: _43  and  _44
REMARK   21  A    between atoms: _46  and  _48
REMARK   22  A    between atoms: _48  and  _49
REMARK   23  A    between atoms: _48  and  _51
REMARK   24  A    between atoms: _51  and  _52
REMARK   25  A    between atoms: _58  and  _60
REMARK   26  A    between atoms: _60  and  _61
REMARK   27  A    between atoms: _60  and  _63
REMARK   28  A    between atoms: _63  and  _64
REMARK   29  A    between atoms: _69  and  _70
REMARK   30  A    between atoms: _72  and  _74
REMARK   31  A    between atoms: _74  and  _75
REMARK   32  A    between atoms: _74  and  _77
REMARK   33  A    between atoms: _77  and  _78
REMARK   34  A    between atoms: _81  and  _82
REMARK   35  A    between atoms: _87  and  _89
REMARK   36  A    between atoms: _89  and  _90
REMARK   37  A    between atoms: _92  and  _94
REMARK   38  A    between atoms: _94  and  _95
REMARK   39  A    between atoms: _94  and  _97
REMARK   40  A    between atoms: _97  and  _98
REMARK   41  A    between atoms: _98  and  _99
REMARK   42  A    between atoms: _104  and  _106
REMARK   43  A    between atoms: _106  and  _107
REMARK   44  A    between atoms: _106  and  _109
REMARK   45  A    between atoms: _109  and  _110
REMARK   46  A    between atoms: _110  and  _111
REMARK   47  A    between atoms: _111  and  _112
REMARK   48  A    between atoms: _121  and  _123
REMARK   49  A    between atoms: _123  and  _124
REMARK   50  A    between atoms: _123  and  _126
REMARK   51  A    between atoms: _129  and  _131
REMARK   52  A    between atoms: _131  and  _132
REMARK   53  A    between atoms: _131  and  _134
REMARK   54  A    between atoms: _134  and  _135
REMARK   55  A    between atoms: _138  and  _140
REMARK   56  A    between atoms: _140  and  _141
REMARK   57  A    between atoms: _140  and  _143
REMARK   58  A    between atoms: _143  and  _144
REMARK   59  A    between atoms: _147  and  _149
REMARK   60  A    between atoms: _149  and  _150
REMARK   61  A    between atoms: _149  and  _152
REMARK   62  A    between atoms: _152  and  _153
REMARK   63  A    between atoms: _155  and  _157
REMARK   64  A    between atoms: _157  and  _158
REMARK   65  A    between atoms: _157  and  _160
REMARK   66  A    between atoms: _160  and  _161
REMARK   67  A    between atoms: _164  and  _166
REMARK   68  A    between atoms: _166  and  _167
REMARK   69  A    between atoms: _166  and  _169
REMARK   70  A    between atoms: _169  and  _170
REMARK   71  A    between atoms: _172  and  _174
REMARK   72  A    between atoms: _174  and  _175
REMARK   73  A    between atoms: _174  and  _177
REMARK   74  A    between atoms: _177  and  _178
REMARK   75  A    between atoms: _183  and  _185
REMARK   76  A    between atoms: _185  and  _186
REMARK   77  A    between atoms: _185  and  _188
REMARK   78  A    between atoms: _188  and  _189
REMARK   79  A    between atoms: _192  and  _194
REMARK   80  A    between atoms: _194  and  _195
REMARK   81  A    between atoms: _194  and  _197
REMARK   82  A    between atoms: _199  and  _201
REMARK   83  A    between atoms: _201  and  _202
REMARK   84  A    between atoms: _204  and  _206
REMARK   85  A    between atoms: _206  and  _207
REMARK   86  A    between atoms: _206  and  _209
REMARK   87  A    between atoms: _209  and  _210
REMARK   88  A    between atoms: _213  and  _215
REMARK   89  A    between atoms: _215  and  _216
REMARK   90  A    between atoms: _215  and  _218
REMARK   91  A    between atoms: _218  and  _219
REMARK   92  A    between atoms: _222  and  _224
REMARK   93  A    between atoms: _224  and  _225
REMARK   94  A    between atoms: _224  and  _227
REMARK   95  A    between atoms: _227  and  _228
REMARK   96  A    between atoms: _230  and  _232
REMARK   97  A    between atoms: _232  and  _233
REMARK   98  A    between atoms: _232  and  _235
REMARK   99  A    between atoms: _237  and  _239
REMARK  100  A    between atoms: _239  and  _240
REMARK  101  A    between atoms: _239  and  _242
REMARK  102  A    between atoms: _242  and  _243
REMARK  103  A    between atoms: _245  and  _247
REMARK  104  A    between atoms: _247  and  _248
REMARK  105  A    between atoms: _247  and  _250
REMARK  106  A    between atoms: _250  and  _251
REMARK  107  A    between atoms: _253  and  _255
REMARK  108  A    between atoms: _255  and  _256
REMARK  109  A    between atoms: _255  and  _258
REMARK  110  A    between atoms: _258  and  _259
REMARK  111  A    between atoms: _264  and  _266
REMARK  112  A    between atoms: _266  and  _267
REMARK  113  A    between atoms: _266  and  _269
REMARK  114  A    between atoms: _269  and  _270
REMARK  115  A    between atoms: _275  and  _276
REMARK  116  A    between atoms: _278  and  _280
REMARK  117  A    between atoms: _280  and  _281
REMARK  118  A    between atoms: _280  and  _283
REMARK  119  A    between atoms: _283  and  _284
REMARK  120  A    between atoms: _287  and  _289
REMARK  121  A    between atoms: _289  and  _290
REMARK  122  A    between atoms: _289  and  _292
REMARK  123  A    between atoms: _292  and  _293
REMARK  124  A    between atoms: _296  and  _298
REMARK  125  A    between atoms: _298  and  _299
REMARK  126  A    between atoms: _298  and  _301
REMARK  127  A    between atoms: _301  and  _302
REMARK  128  A    between atoms: _302  and  _303
REMARK  129  A    between atoms: _303  and  _304
REMARK  130  A    between atoms: _313  and  _315
REMARK  131  A    between atoms: _315  and  _316
REMARK  132  A    between atoms: _315  and  _318
REMARK  133  A    between atoms: _318  and  _319
REMARK  134  A    between atoms: _323  and  _324
REMARK  135  A    between atoms: _329  and  _331
REMARK  136  A    between atoms: _331  and  _332
REMARK  137  A    between atoms: _331  and  _334
REMARK  138  A    between atoms: _334  and  _335
REMARK  139  A    between atoms: _335  and  _336
REMARK  140  A    between atoms: _336  and  _337
REMARK  141  A    between atoms: _346  and  _348
REMARK  142  A    between atoms: _348  and  _349
REMARK  143  A    between atoms: _348  and  _351
REMARK  144  A    between atoms: _351  and  _352
REMARK  145  A    between atoms: _352  and  _353
REMARK  146  A    between atoms: _356  and  _358
REMARK  147  A    between atoms: _358  and  _359
REMARK  148  A    between atoms: _358  and  _361
REMARK  149  A    between atoms: _364  and  _366
REMARK  150  A    between atoms: _366  and  _367
REMARK  151  A    between atoms: _366  and  _369
REMARK  152  A    between atoms: _369  and  _370
REMARK  153  A    between atoms: _375  and  _377
REMARK  154  A    between atoms: _377  and  _378
REMARK  155  A    between atoms: _377  and  _380
REMARK  156  A    between atoms: _380  and  _381
REMARK  157  A    between atoms: _383  and  _385
REMARK  158  A    between atoms: _385  and  _386
REMARK  159  A    between atoms: _385  and  _388
REMARK  160  A    between atoms: _388  and  _389
REMARK  161  A    between atoms: _399  and  _401
REMARK  162  A    between atoms: _401  and  _402
REMARK  163  A    between atoms: _401  and  _404
REMARK  164  A    between atoms: _404  and  _405
REMARK  165  A    between atoms: _408  and  _410
REMARK  166  A    between atoms: _410  and  _411
REMARK  167  A    between atoms: _413  and  _415
REMARK  168  A    between atoms: _415  and  _416
REMARK  169  A    between atoms: _415  and  _418
REMARK  170  A    between atoms: _418  and  _419
REMARK  171  A    between atoms: _424  and  _426
REMARK  172  A    between atoms: _426  and  _427
REMARK  173  A    between atoms: _426  and  _429
REMARK  174  A    between atoms: _429  and  _430
REMARK  175  A    between atoms: _433  and  _435
REMARK  176  A    between atoms: _435  and  _436
REMARK  177  A    between atoms: _435  and  _438
REMARK  178  A    between atoms: _438  and  _439
REMARK  179  A    between atoms: _442  and  _444
REMARK  180  A    between atoms: _444  and  _445
REMARK  181  A    between atoms: _444  and  _447
REMARK  182  A    between atoms: _447  and  _448
REMARK  183  A    between atoms: _448  and  _449
REMARK  184  A    between atoms: _451  and  _453
REMARK  185  A    between atoms: _453  and  _454
REMARK  186  A    between atoms: _453  and  _456
REMARK  187  A    between atoms: _456  and  _457
REMARK  188  A    between atoms: _463  and  _465
REMARK  189  A    between atoms: _465  and  _466
REMARK  190  A    between atoms: _470  and  _471
REMARK  191  A    between atoms: _476  and  _478
REMARK  192  A    between atoms: _478  and  _479
REMARK  193  A    between atoms: _478  and  _481
REMARK  194  A    between atoms: _481  and  _482
REMARK  195  A    between atoms: _485  and  _487
REMARK  196  A    between atoms: _487  and  _488
REMARK  197  A    between atoms: _487  and  _490
REMARK  198  A    between atoms: _490  and  _491
REMARK  199  A    between atoms: _501  and  _503
REMARK  200  A    between atoms: _503  and  _504
REMARK  201  A    between atoms: _503  and  _506
REMARK  202  A    between atoms: _508  and  _510
REMARK  203  A    between atoms: _510  and  _511
REMARK  204  A    between atoms: _510  and  _513
REMARK  205  A    between atoms: _513  and  _514
REMARK  206  A    between atoms: _514  and  _515
REMARK  207  A    between atoms: _518  and  _520
REMARK  208  A    between atoms: _520  and  _521
REMARK  209  A    between atoms: _520  and  _523
REMARK  210  A    between atoms: _523  and  _524
REMARK  211  A    between atoms: _527  and  _529
REMARK  212  A    between atoms: _529  and  _530
REMARK  213  A    between atoms: _529  and  _532
REMARK  214  A    between atoms: _532  and  _533
REMARK  215  A    between atoms: _538  and  _539
REMARK  216  A    between atoms: _541  and  _543
REMARK  217  A    between atoms: _543  and  _544
REMARK  218  A    between atoms: _546  and  _548
REMARK  219  A    between atoms: _548  and  _549
REMARK  220  A    between atoms: _552  and  _554
REMARK  221  A    between atoms: _554  and  _555
REMARK  222  A    between atoms: _554  and  _557
REMARK  223  A    between atoms: _559  and  _561
REMARK  224  A    between atoms: _561  and  _562
REMARK  225  A    between atoms: _561  and  _564
REMARK  226  A    between atoms: _564  and  _565
REMARK  227  A    between atoms: _570  and  _571
REMARK  228  A    between atoms: _573  and  _575
REMARK  229  A    between atoms: _575  and  _576
REMARK  230  A    between atoms: _575  and  _578
REMARK  231  A    between atoms: _578  and  _579
REMARK  232  A    between atoms: _584  and  _586
REMARK  233  A    between atoms: _586  and  _587
REMARK  234  A    between atoms: _586  and  _589
REMARK  235  A    between atoms: _589  and  _590
REMARK  236  A    between atoms: _596  and  _598
REMARK  237  A    between atoms: _598  and  _599
REMARK  238  A    between atoms: _602  and  _604
REMARK  239  A    between atoms: _604  and  _605
REMARK  240  A    between atoms: _607  and  _609
REMARK  241  A    between atoms: _609  and  _610
REMARK  242  A    between atoms: _609  and  _612
REMARK  243  A    between atoms: _612  and  _613
REMARK  244  A    between atoms: _618  and  _619
REMARK  245  A    between atoms: _621  and  _623
REMARK  246  A    between atoms: _623  and  _624
REMARK  247  A    between atoms: _623  and  _626
REMARK  248  A    between atoms: _626  and  _627
REMARK  249  A    between atoms: _629  and  _631
REMARK  250  A    between atoms: _631  and  _632
REMARK  251  A    between atoms: _634  and  _636
REMARK  252  A    between atoms: _636  and  _637
REMARK                            x       y       z     vdW  Elec       q    Type
REMARK                         _______ _______ _______ _____ _____    ______ ____
ROOT
ATOM      1  O   HOH     1      42.450   5.619 -18.795  0.00  0.00    +0.000 OA
ENDROOT
TORSDOF 0
REMARK  Name = ../refined-set-2016/3hkw/3hkw_pocket.pdb
REMARK  252 active torsions:
REMARK  status: ('A' for Active; 'I' for Inactive)
REMARK    1  A    between atoms: _1  and  _3
REMARK    2  A    between atoms: _3  and  _4
REMARK    3  A    between atoms: _3  and  _6
REMARK    4  A    between atoms: _6  and  _7
REMARK    5  A    between atoms: _7  and  _8
REMARK    6  A    between atoms: _8  and  _9
REMARK    7  A    between atoms: _9  and  _10
REMARK    8  A    between atoms: _14  and  _16
REMARK    9  A    between atoms: _16  and  _17
REMARK   10  A    between atoms: _16  and  _19
REMARK   11  A    between atoms: _19  and  _20
REMARK   12  A    between atoms: _20  and  _21
REMARK   13  A    between atoms: _24  and  _26
REMARK   14  A    between atoms: _26  and  _27
REMARK   15  A    between atoms: _26  and  _29
REMARK   16  A    between atoms: _29  and  _30
REMARK   17  A    between atoms: _30  and  _31
REMARK   18  A    between atoms: _31  and  _32
REMARK   19  A    between atoms: _41  and  _43
REMARK   20  A    between atoms: _43  and  _44
REMARK   21  A    between atoms: _46  and  _48
REMARK   22  A    between atoms: _48  and  _49
REMARK   23  A    between atoms: _48  and  _51
REMARK   24  A    between atoms: _51  and  _52
REMARK   25  A    between atoms: _58  and  _60
REMARK   26  A    between atoms: _60  and  _61
REMARK   27  A    between atoms: _60  and  _63
REMARK   28  A    between atoms: _63  and  _64
REMARK   29  A    between atoms: _69  and  _70
REMARK   30  A    between atoms: _72  and  _74
REMARK   31  A    between atoms: _74  and  _75
REMARK   32  A    between atoms: _74  and  _77
REMARK   33  A    between atoms: _77  and  _78
REMARK   34  A    between atoms: _81  and  _82
REMARK   35  A    between atoms: _87  and  _89
REMARK   36  A    between atoms: _89  and  _90
REMARK   37  A    between atoms: _92  and  _94
REMARK   38  A    between atoms: _94  and  _95
REMARK   39  A    between atoms: _94  and  _97
REMARK   40  A    between atoms: _97  and  _98
REMARK   41  A    between atoms: _98  and  _99
REMARK   42  A    between atoms: _104  and  _106
REMARK   43  A    between atoms: _106  and  _107
REMARK   44  A    between atoms: _106  and  _109
REMARK   45  A    between atoms: _109  and  _110
REMARK   46  A    between atoms: _110  and  _111
REMARK   47  A    between atoms: _111  and  _112
REMARK   48  A    between atoms: _121  and  _123
REMARK   49  A    between atoms: _123  and  _124
REMARK   50  A    between atoms: _123  and  _126
REMARK   51  A    between atoms: _129  and  _131
REMARK   52  A    between atoms: _131  and  _132
REMARK   53  A    between atoms: _131  and  _134
REMARK   54  A    between atoms: _134  and  _135
REMARK   55  A    between atoms: _138  and  _140
REMARK   56  A    between atoms: _140  and  _141
REMARK   57  A    between atoms: _140  and  _143
REMARK   58  A    between atoms: _143  and  _144
REMARK   59  A    between atoms: _147  and  _149
REMARK   60  A    between atoms: _149  and  _150
REMARK   61  A    between atoms: _149  and  _152
REMARK   62  A    between atoms: _152  and  _153
REMARK   63  A    between atoms: _155  and  _157
REMARK   64  A    between atoms: _157  and  _158
REMARK   65  A    between atoms: _157  and  _160
REMARK   66  A    between atoms: _160  and  _161
REMARK   67  A    between atoms: _164  and  _166
REMARK   68  A    between atoms: _166  and  _167
REMARK   69  A    between atoms: _166  and  _169
REMARK   70  A    between atoms: _169  and  _170
REMARK   71  A    between atoms: _172  and  _174
REMARK   72  A    between atoms: _174  and  _175
REMARK   73  A    between atoms: _174  and  _177
REMARK   74  A    between atoms: _177  and  _178
REMARK   75  A    between atoms: _183  and  _185
REMARK   76  A    between atoms: _185  and  _186
REMARK   77  A    between atoms: _185  and  _188
REMARK   78  A    between atoms: _188  and  _189
REMARK   79  A    between atoms: _192  and  _194
REMARK   80  A    between atoms: _194  and  _195
REMARK   81  A    between atoms: _194  and  _197
REMARK   82  A    between atoms: _199  and  _201
REMARK   83  A    between atoms: _201  and  _202
REMARK   84  A    between atoms: _204  and  _206
REMARK   85  A    between atoms: _206  and  _207
REMARK   86  A    between atoms: _206  and  _209
REMARK   87  A    between atoms: _209  and  _210
REMARK   88  A    between atoms: _213  and  _215
REMARK   89  A    between atoms: _215  and  _216
REMARK   90  A    between atoms: _215  and  _218
REMARK   91  A    between atoms: _218  and  _219
REMARK   92  A    between atoms: _222  and  _224
REMARK   93  A    between atoms: _224  and  _225
REMARK   94  A    between atoms: _224  and  _227
REMARK   95  A    between atoms: _227  and  _228
REMARK   96  A    between atoms: _230  and  _232
REMARK   97  A    between atoms: _232  and  _233
REMARK   98  A    between atoms: _232  and  _235
REMARK   99  A    between atoms: _237  and  _239
REMARK  100  A    between atoms: _239  and  _240
REMARK  101  A    between atoms: _239  and  _242
REMARK  102  A    between atoms: _242  and  _243
REMARK  103  A    between atoms: _245  and  _247
REMARK  104  A    between atoms: _247  and  _248
REMARK  105  A    between atoms: _247  and  _250
REMARK  106  A    between atoms: _250  and  _251
REMARK  107  A    between atoms: _253  and  _255
REMARK  108  A    between atoms: _255  and  _256
REMARK  109  A    between atoms: _255  and  _258
REMARK  110  A    between atoms: _258  and  _259
REMARK  111  A    between atoms: _264  and  _266
REMARK  112  A    between atoms: _266  and  _267
REMARK  113  A    between atoms: _266  and  _269
REMARK  114  A    between atoms: _269  and  _270
REMARK  115  A    between atoms: _275  and  _276
REMARK  116  A    between atoms: _278  and  _280
REMARK  117  A    between atoms: _280  and  _281
REMARK  118  A    between atoms: _280  and  _283
REMARK  119  A    between atoms: _283  and  _284
REMARK  120  A    between atoms: _287  and  _289
REMARK  121  A    between atoms: _289  and  _290
REMARK  122  A    between atoms: _289  and  _292
REMARK  123  A    between atoms: _292  and  _293
REMARK  124  A    between atoms: _296  and  _298
REMARK  125  A    between atoms: _298  and  _299
REMARK  126  A    between atoms: _298  and  _301
REMARK  127  A    between atoms: _301  and  _302
REMARK  128  A    between atoms: _302  and  _303
REMARK  129  A    between atoms: _303  and  _304
REMARK  130  A    between atoms: _313  and  _315
REMARK  131  A    between atoms: _315  and  _316
REMARK  132  A    between atoms: _315  and  _318
REMARK  133  A    between atoms: _318  and  _319
REMARK  134  A    between atoms: _323  and  _324
REMARK  135  A    between atoms: _329  and  _331
REMARK  136  A    between atoms: _331  and  _332
REMARK  137  A    between atoms: _331  and  _334
REMARK  138  A    between atoms: _334  and  _335
REMARK  139  A    between atoms: _335  and  _336
REMARK  140  A    between atoms: _336  and  _337
REMARK  141  A    between atoms: _346  and  _348
REMARK  142  A    between atoms: _348  and  _349
REMARK  143  A    between atoms: _348  and  _351
REMARK  144  A    between atoms: _351  and  _352
REMARK  145  A    between atoms: _352  and  _353
REMARK  146  A    between atoms: _356  and  _358
REMARK  147  A    between atoms: _358  and  _359
REMARK  148  A    between atoms: _358  and  _361
REMARK  149  A    between atoms: _364  and  _366
REMARK  150  A    between atoms: _366  and  _367
REMARK  151  A    between atoms: _366  and  _369
REMARK  152  A    between atoms: _369  and  _370
REMARK  153  A    between atoms: _375  and  _377
REMARK  154  A    between atoms: _377  and  _378
REMARK  155  A    between atoms: _377  and  _380
REMARK  156  A    between atoms: _380  and  _381
REMARK  157  A    between atoms: _383  and  _385
REMARK  158  A    between atoms: _385  and  _386
REMARK  159  A    between atoms: _385  and  _388
REMARK  160  A    between atoms: _388  and  _389
REMARK  161  A    between atoms: _399  and  _401
REMARK  162  A    between atoms: _401  and  _402
REMARK  163  A    between atoms: _401  and  _404
REMARK  164  A    between atoms: _404  and  _405
REMARK  165  A    between atoms: _408  and  _410
REMARK  166  A    between atoms: _410  and  _411
REMARK  167  A    between atoms: _413  and  _415
REMARK  168  A    between atoms: _415  and  _416
REMARK  169  A    between atoms: _415  and  _418
REMARK  170  A    between atoms: _418  and  _419
REMARK  171  A    between atoms: _424  and  _426
REMARK  172  A    between atoms: _426  and  _427
REMARK  173  A    between atoms: _426  and  _429
REMARK  174  A    between atoms: _429  and  _430
REMARK  175  A    between atoms: _433  and  _435
REMARK  176  A    between atoms: _435  and  _436
REMARK  177  A    between atoms: _435  and  _438
REMARK  178  A    between atoms: _438  and  _439
REMARK  179  A    between atoms: _442  and  _444
REMARK  180  A    between atoms: _444  and  _445
REMARK  181  A    between atoms: _444  and  _447
REMARK  182  A    between atoms: _447  and  _448
REMARK  183  A    between atoms: _448  and  _449
REMARK  184  A    between atoms: _451  and  _453
REMARK  185  A    between atoms: _453  and  _454
REMARK  186  A    between atoms: _453  and  _456
REMARK  187  A    between atoms: _456  and  _457
REMARK  188  A    between atoms: _463  and  _465
REMARK  189  A    between atoms: _465  and  _466
REMARK  190  A    between atoms: _470  and  _471
REMARK  191  A    between atoms: _476  and  _478
REMARK  192  A    between atoms: _478  and  _479
REMARK  193  A    between atoms: _478  and  _481
REMARK  194  A    between atoms: _481  and  _482
REMARK  195  A    between atoms: _485  and  _487
REMARK  196  A    between atoms: _487  and  _488
REMARK  197  A    between atoms: _487  and  _490
REMARK  198  A    between atoms: _490  and  _491
REMARK  199  A    between atoms: _501  and  _503
REMARK  200  A    between atoms: _503  and  _504
REMARK  201  A    between atoms: _503  and  _506
REMARK  202  A    between atoms: _508  and  _510
REMARK  203  A    between atoms: _510  and  _511
REMARK  204  A    between atoms: _510  and  _513
REMARK  205  A    between atoms: _513  and  _514
REMARK  206  A    between atoms: _514  and  _515
REMARK  207  A    between atoms: _518  and  _520
REMARK  208  A    between atoms: _520  and  _521
REMARK  209  A    between atoms: _520  and  _523
REMARK  210  A    between atoms: _523  and  _524
REMARK  211  A    between atoms: _527  and  _529
REMARK  212  A    between atoms: _529  and  _530
REMARK  213  A    between atoms: _529  and  _532
REMARK  214  A    between atoms: _532  and  _533
REMARK  215  A    between atoms: _538  and  _539
REMARK  216  A    between atoms: _541  and  _543
REMARK  217  A    between atoms: _543  and  _544
REMARK  218  A    between atoms: _546  and  _548
REMARK  219  A    between atoms: _548  and  _549
REMARK  220  A    between atoms: _552  and  _554
REMARK  221  A    between atoms: _554  and  _555
REMARK  222  A    between atoms: _554  and  _557
REMARK  223  A    between atoms: _559  and  _561
REMARK  224  A    between atoms: _561  and  _562
REMARK  225  A    between atoms: _561  and  _564
REMARK  226  A    between atoms: _564  and  _565
REMARK  227  A    between atoms: _570  and  _571
REMARK  228  A    between atoms: _573  and  _575
REMARK  229  A    between atoms: _575  and  _576
REMARK  230  A    between atoms: _575  and  _578
REMARK  231  A    between atoms: _578  and  _579
REMARK  232  A    between atoms: _584  and  _586
REMARK  233  A    between atoms: _586  and  _587
REMARK  234  A    between atoms: _586  and  _589
REMARK  235  A    between atoms: _589  and  _590
REMARK  236  A    between atoms: _596  and  _598
REMARK  237  A    between atoms: _598  and  _599
REMARK  238  A    between atoms: _602  and  _604
REMARK  239  A    between atoms: _604  and  _605
REMARK  240  A    between atoms: _607  and  _609
REMARK  241  A    between atoms: _609  and  _610
REMARK  242  A    between atoms: _609  and  _612
REMARK  243  A    between atoms: _612  and  _613
REMARK  244  A    between atoms: _618  and  _619
REMARK  245  A    between atoms: _621  and  _623
REMARK  246  A    between atoms: _623  and  _624
REMARK  247  A    between atoms: _623  and  _626
REMARK  248  A    between atoms: _626  and  _627
REMARK  249  A    between atoms: _629  and  _631
REMARK  250  A    between atoms: _631  and  _632
REMARK  251  A    between atoms: _634  and  _636
REMARK  252  A    between atoms: _636  and  _637
REMARK                            x       y       z     vdW  Elec       q    Type
REMARK                         _______ _______ _______ _____ _____    ______ ____
ROOT
ATOM      1  O   HOH     1      37.128   4.187 -22.826  0.00  0.00    +0.000 OA
ENDROOT
TORSDOF 0
REMARK  Name = ../refined-set-2016/3hkw/3hkw_pocket.pdb
REMARK  252 active torsions:
REMARK  status: ('A' for Active; 'I' for Inactive)
REMARK    1  A    between atoms: _1  and  _3
REMARK    2  A    between atoms: _3  and  _4
REMARK    3  A    between atoms: _3  and  _6
REMARK    4  A    between atoms: _6  and  _7
REMARK    5  A    between atoms: _7  and  _8
REMARK    6  A    between atoms: _8  and  _9
REMARK    7  A    between atoms: _9  and  _10
REMARK    8  A    between atoms: _14  and  _16
REMARK    9  A    between atoms: _16  and  _17
REMARK   10  A    between atoms: _16  and  _19
REMARK   11  A    between atoms: _19  and  _20
REMARK   12  A    between atoms: _20  and  _21
REMARK   13  A    between atoms: _24  and  _26
REMARK   14  A    between atoms: _26  and  _27
REMARK   15  A    between atoms: _26  and  _29
REMARK   16  A    between atoms: _29  and  _30
REMARK   17  A    between atoms: _30  and  _31
REMARK   18  A    between atoms: _31  and  _32
REMARK   19  A    between atoms: _41  and  _43
REMARK   20  A    between atoms: _43  and  _44
REMARK   21  A    between atoms: _46  and  _48
REMARK   22  A    between atoms: _48  and  _49
REMARK   23  A    between atoms: _48  and  _51
REMARK   24  A    between atoms: _51  and  _52
REMARK   25  A    between atoms: _58  and  _60
REMARK   26  A    between atoms: _60  and  _61
REMARK   27  A    between atoms: _60  and  _63
REMARK   28  A    between atoms: _63  and  _64
REMARK   29  A    between atoms: _69  and  _70
REMARK   30  A    between atoms: _72  and  _74
REMARK   31  A    between atoms: _74  and  _75
REMARK   32  A    between atoms: _74  and  _77
REMARK   33  A    between atoms: _77  and  _78
REMARK   34  A    between atoms: _81  and  _82
REMARK   35  A    between atoms: _87  and  _89
REMARK   36  A    between atoms: _89  and  _90
REMARK   37  A    between atoms: _92  and  _94
REMARK   38  A    between atoms: _94  and  _95
REMARK   39  A    between atoms: _94  and  _97
REMARK   40  A    between atoms: _97  and  _98
REMARK   41  A    between atoms: _98  and  _99
REMARK   42  A    between atoms: _104  and  _106
REMARK   43  A    between atoms: _106  and  _107
REMARK   44  A    between atoms: _106  and  _109
REMARK   45  A    between atoms: _109  and  _110
REMARK   46  A    between atoms: _110  and  _111
REMARK   47  A    between atoms: _111  and  _112
REMARK   48  A    between atoms: _121  and  _123
REMARK   49  A    between atoms: _123  and  _124
REMARK   50  A    between atoms: _123  and  _126
REMARK   51  A    between atoms: _129  and  _131
REMARK   52  A    between atoms: _131  and  _132
REMARK   53  A    between atoms: _131  and  _134
REMARK   54  A    between atoms: _134  and  _135
REMARK   55  A    between atoms: _138  and  _140
REMARK   56  A    between atoms: _140  and  _141
REMARK   57  A    between atoms: _140  and  _143
REMARK   58  A    between atoms: _143  and  _144
REMARK   59  A    between atoms: _147  and  _149
REMARK   60  A    between atoms: _149  and  _150
REMARK   61  A    between atoms: _149  and  _152
REMARK   62  A    between atoms: _152  and  _153
REMARK   63  A    between atoms: _155  and  _157
REMARK   64  A    between atoms: _157  and  _158
REMARK   65  A    between atoms: _157  and  _160
REMARK   66  A    between atoms: _160  and  _161
REMARK   67  A    between atoms: _164  and  _166
REMARK   68  A    between atoms: _166  and  _167
REMARK   69  A    between atoms: _166  and  _169
REMARK   70  A    between atoms: _169  and  _170
REMARK   71  A    between atoms: _172  and  _174
REMARK   72  A    between atoms: _174  and  _175
REMARK   73  A    between atoms: _174  and  _177
REMARK   74  A    between atoms: _177  and  _178
REMARK   75  A    between atoms: _183  and  _185
REMARK   76  A    between atoms: _185  and  _186
REMARK   77  A    between atoms: _185  and  _188
REMARK   78  A    between atoms: _188  and  _189
REMARK   79  A    between atoms: _192  and  _194
REMARK   80  A    between atoms: _194  and  _195
REMARK   81  A    between atoms: _194  and  _197
REMARK   82  A    between atoms: _199  and  _201
REMARK   83  A    between atoms: _201  and  _202
REMARK   84  A    between atoms: _204  and  _206
REMARK   85  A    between atoms: _206  and  _207
REMARK   86  A    between atoms: _206  and  _209
REMARK   87  A    between atoms: _209  and  _210
REMARK   88  A    between atoms: _213  and  _215
REMARK   89  A    between atoms: _215  and  _216
REMARK   90  A    between atoms: _215  and  _218
REMARK   91  A    between atoms: _218  and  _219
REMARK   92  A    between atoms: _222  and  _224
REMARK   93  A    between atoms: _224  and  _225
REMARK   94  A    between atoms: _224  and  _227
REMARK   95  A    between atoms: _227  and  _228
REMARK   96  A    between atoms: _230  and  _232
REMARK   97  A    between atoms: _232  and  _233
REMARK   98  A    between atoms: _232  and  _235
REMARK   99  A    between atoms: _237  and  _239
REMARK  100  A    between atoms: _239  and  _240
REMARK  101  A    between atoms: _239  and  _242
REMARK  102  A    between atoms: _242  and  _243
REMARK  103  A    between atoms: _245  and  _247
REMARK  104  A    between atoms: _247  and  _248
REMARK  105  A    between atoms: _247  and  _250
REMARK  106  A    between atoms: _250  and  _251
REMARK  107  A    between atoms: _253  and  _255
REMARK  108  A    between atoms: _255  and  _256
REMARK  109  A    between atoms: _255  and  _258
REMARK  110  A    between atoms: _258  and  _259
REMARK  111  A    between atoms: _264  and  _266
REMARK  112  A    between atoms: _266  and  _267
REMARK  113  A    between atoms: _266  and  _269
REMARK  114  A    between atoms: _269  and  _270
REMARK  115  A    between atoms: _275  and  _276
REMARK  116  A    between atoms: _278  and  _280
REMARK  117  A    between atoms: _280  and  _281
REMARK  118  A    between atoms: _280  and  _283
REMARK  119  A    between atoms: _283  and  _284
REMARK  120  A    between atoms: _287  and  _289
REMARK  121  A    between atoms: _289  and  _290
REMARK  122  A    between atoms: _289  and  _292
REMARK  123  A    between atoms: _292  and  _293
REMARK  124  A    between atoms: _296  and  _298
REMARK  125  A    between atoms: _298  and  _299
REMARK  126  A    between atoms: _298  and  _301
REMARK  127  A    between atoms: _301  and  _302
REMARK  128  A    between atoms: _302  and  _303
REMARK  129  A    between atoms: _303  and  _304
REMARK  130  A    between atoms: _313  and  _315
REMARK  131  A    between atoms: _315  and  _316
REMARK  132  A    between atoms: _315  and  _318
REMARK  133  A    between atoms: _318  and  _319
REMARK  134  A    between atoms: _323  and  _324
REMARK  135  A    between atoms: _329  and  _331
REMARK  136  A    between atoms: _331  and  _332
REMARK  137  A    between atoms: _331  and  _334
REMARK  138  A    between atoms: _334  and  _335
REMARK  139  A    between atoms: _335  and  _336
REMARK  140  A    between atoms: _336  and  _337
REMARK  141  A    between atoms: _346  and  _348
REMARK  142  A    between atoms: _348  and  _349
REMARK  143  A    between atoms: _348  and  _351
REMARK  144  A    between atoms: _351  and  _352
REMARK  145  A    between atoms: _352  and  _353
REMARK  146  A    between atoms: _356  and  _358
REMARK  147  A    between atoms: _358  and  _359
REMARK  148  A    between atoms: _358  and  _361
REMARK  149  A    between atoms: _364  and  _366
REMARK  150  A    between atoms: _366  and  _367
REMARK  151  A    between atoms: _366  and  _369
REMARK  152  A    between atoms: _369  and  _370
REMARK  153  A    between atoms: _375  and  _377
REMARK  154  A    between atoms: _377  and  _378
REMARK  155  A    between atoms: _377  and  _380
REMARK  156  A    between atoms: _380  and  _381
REMARK  157  A    between atoms: _383  and  _385
REMARK  158  A    between atoms: _385  and  _386
REMARK  159  A    between atoms: _385  and  _388
REMARK  160  A    between atoms: _388  and  _389
REMARK  161  A    between atoms: _399  and  _401
REMARK  162  A    between atoms: _401  and  _402
REMARK  163  A    between atoms: _401  and  _404
REMARK  164  A    between atoms: _404  and  _405
REMARK  165  A    between atoms: _408  and  _410
REMARK  166  A    between atoms: _410  and  _411
REMARK  167  A    between atoms: _413  and  _415
REMARK  168  A    between atoms: _415  and  _416
REMARK  169  A    between atoms: _415  and  _418
REMARK  170  A    between atoms: _418  and  _419
REMARK  171  A    between atoms: _424  and  _426
REMARK  172  A    between atoms: _426  and  _427
REMARK  173  A    between atoms: _426  and  _429
REMARK  174  A    between atoms: _429  and  _430
REMARK  175  A    between atoms: _433  and  _435
REMARK  176  A    between atoms: _435  and  _436
REMARK  177  A    between atoms: _435  and  _438
REMARK  178  A    between atoms: _438  and  _439
REMARK  179  A    between atoms: _442  and  _444
REMARK  180  A    between atoms: _444  and  _445
REMARK  181  A    between atoms: _444  and  _447
REMARK  182  A    between atoms: _447  and  _448
REMARK  183  A    between atoms: _448  and  _449
REMARK  184  A    between atoms: _451  and  _453
REMARK  185  A    between atoms: _453  and  _454
REMARK  186  A    between atoms: _453  and  _456
REMARK  187  A    between atoms: _456  and  _457
REMARK  188  A    between atoms: _463  and  _465
REMARK  189  A    between atoms: _465  and  _466
REMARK  190  A    between atoms: _470  and  _471
REMARK  191  A    between atoms: _476  and  _478
REMARK  192  A    between atoms: _478  and  _479
REMARK  193  A    between atoms: _478  and  _481
REMARK  194  A    between atoms: _481  and  _482
REMARK  195  A    between atoms: _485  and  _487
REMARK  196  A    between atoms: _487  and  _488
REMARK  197  A    between atoms: _487  and  _490
REMARK  198  A    between atoms: _490  and  _491
REMARK  199  A    between atoms: _501  and  _503
REMARK  200  A    between atoms: _503  and  _504
REMARK  201  A    between atoms: _503  and  _506
REMARK  202  A    between atoms: _508  and  _510
REMARK  203  A    between atoms: _510  and  _511
REMARK  204  A    between atoms: _510  and  _513
REMARK  205  A    between atoms: _513  and  _514
REMARK  206  A    between atoms: _514  and  _515
REMARK  207  A    between atoms: _518  and  _520
REMARK  208  A    between atoms: _520  and  _521
REMARK  209  A    between atoms: _520  and  _523
REMARK  210  A    between atoms: _523  and  _524
REMARK  211  A    between atoms: _527  and  _529
REMARK  212  A    between atoms: _529  and  _530
REMARK  213  A    between atoms: _529  and  _532
REMARK  214  A    between atoms: _532  and  _533
REMARK  215  A    between atoms: _538  and  _539
REMARK  216  A    between atoms: _541  and  _543
REMARK  217  A    between atoms: _543  and  _544
REMARK  218  A    between atoms: _546  and  _548
REMARK  219  A    between atoms: _548  and  _549
REMARK  220  A    between atoms: _552  and  _554
REMARK  221  A    between atoms: _554  and  _555
REMARK  222  A    between atoms: _554  and  _557
REMARK  223  A    between atoms: _559  and  _561
REMARK  224  A    between atoms: _561  and  _562
REMARK  225  A    between atoms: _561  and  _564
REMARK  226  A    between atoms: _564  and  _565
REMARK  227  A    between atoms: _570  and  _571
REMARK  228  A    between atoms: _573  and  _575
REMARK  229  A    between atoms: _575  and  _576
REMARK  230  A    between atoms: _575  and  _578
REMARK  231  A    between atoms: _578  and  _579
REMARK  232  A    between atoms: _584  and  _586
REMARK  233  A    between atoms: _586  and  _587
REMARK  234  A    between atoms: _586  and  _589
REMARK  235  A    between atoms: _589  and  _590
REMARK  236  A    between atoms: _596  and  _598
REMARK  237  A    between atoms: _598  and  _599
REMARK  238  A    between atoms: _602  and  _604
REMARK  239  A    between atoms: _604  and  _605
REMARK  240  A    between atoms: _607  and  _609
REMARK  241  A    between atoms: _609  and  _610
REMARK  242  A    between atoms: _609  and  _612
REMARK  243  A    between atoms: _612  and  _613
REMARK  244  A    between atoms: _618  and  _619
REMARK  245  A    between atoms: _621  and  _623
REMARK  246  A    between atoms: _623  and  _624
REMARK  247  A    between atoms: _623  and  _626
REMARK  248  A    between atoms: _626  and  _627
REMARK  249  A    between atoms: _629  and  _631
REMARK  250  A    between atoms: _631  and  _632
REMARK  251  A    between atoms: _634  and  _636
REMARK  252  A    between atoms: _636  and  _637
REMARK                            x       y       z     vdW  Elec       q    Type
REMARK                         _______ _______ _______ _____ _____    ______ ____
ROOT
ATOM      1  O   HOH     1      41.017  -4.189 -11.463  0.00  0.00    +0.000 OA
ENDROOT
TORSDOF 0
REMARK  Name = ../refined-set-2016/3hkw/3hkw_pocket.pdb
REMARK  252 active torsions:
REMARK  status: ('A' for Active; 'I' for Inactive)
REMARK    1  A    between atoms: _1  and  _3
REMARK    2  A    between atoms: _3  and  _4
REMARK    3  A    between atoms: _3  and  _6
REMARK    4  A    between atoms: _6  and  _7
REMARK    5  A    between atoms: _7  and  _8
REMARK    6  A    between atoms: _8  and  _9
REMARK    7  A    between atoms: _9  and  _10
REMARK    8  A    between atoms: _14  and  _16
REMARK    9  A    between atoms: _16  and  _17
REMARK   10  A    between atoms: _16  and  _19
REMARK   11  A    between atoms: _19  and  _20
REMARK   12  A    between atoms: _20  and  _21
REMARK   13  A    between atoms: _24  and  _26
REMARK   14  A    between atoms: _26  and  _27
REMARK   15  A    between atoms: _26  and  _29
REMARK   16  A    between atoms: _29  and  _30
REMARK   17  A    between atoms: _30  and  _31
REMARK   18  A    between atoms: _31  and  _32
REMARK   19  A    between atoms: _41  and  _43
REMARK   20  A    between atoms: _43  and  _44
REMARK   21  A    between atoms: _46  and  _48
REMARK   22  A    between atoms: _48  and  _49
REMARK   23  A    between atoms: _48  and  _51
REMARK   24  A    between atoms: _51  and  _52
REMARK   25  A    between atoms: _58  and  _60
REMARK   26  A    between atoms: _60  and  _61
REMARK   27  A    between atoms: _60  and  _63
REMARK   28  A    between atoms: _63  and  _64
REMARK   29  A    between atoms: _69  and  _70
REMARK   30  A    between atoms: _72  and  _74
REMARK   31  A    between atoms: _74  and  _75
REMARK   32  A    between atoms: _74  and  _77
REMARK   33  A    between atoms: _77  and  _78
REMARK   34  A    between atoms: _81  and  _82
REMARK   35  A    between atoms: _87  and  _89
REMARK   36  A    between atoms: _89  and  _90
REMARK   37  A    between atoms: _92  and  _94
REMARK   38  A    between atoms: _94  and  _95
REMARK   39  A    between atoms: _94  and  _97
REMARK   40  A    between atoms: _97  and  _98
REMARK   41  A    between atoms: _98  and  _99
REMARK   42  A    between atoms: _104  and  _106
REMARK   43  A    between atoms: _106  and  _107
REMARK   44  A    between atoms: _106  and  _109
REMARK   45  A    between atoms: _109  and  _110
REMARK   46  A    between atoms: _110  and  _111
REMARK   47  A    between atoms: _111  and  _112
REMARK   48  A    between atoms: _121  and  _123
REMARK   49  A    between atoms: _123  and  _124
REMARK   50  A    between atoms: _123  and  _126
REMARK   51  A    between atoms: _129  and  _131
REMARK   52  A    between atoms: _131  and  _132
REMARK   53  A    between atoms: _131  and  _134
REMARK   54  A    between atoms: _134  and  _135
REMARK   55  A    between atoms: _138  and  _140
REMARK   56  A    between atoms: _140  and  _141
REMARK   57  A    between atoms: _140  and  _143
REMARK   58  A    between atoms: _143  and  _144
REMARK   59  A    between atoms: _147  and  _149
REMARK   60  A    between atoms: _149  and  _150
REMARK   61  A    between atoms: _149  and  _152
REMARK   62  A    between atoms: _152  and  _153
REMARK   63  A    between atoms: _155  and  _157
REMARK   64  A    between atoms: _157  and  _158
REMARK   65  A    between atoms: _157  and  _160
REMARK   66  A    between atoms: _160  and  _161
REMARK   67  A    between atoms: _164  and  _166
REMARK   68  A    between atoms: _166  and  _167
REMARK   69  A    between atoms: _166  and  _169
REMARK   70  A    between atoms: _169  and  _170
REMARK   71  A    between atoms: _172  and  _174
REMARK   72  A    between atoms: _174  and  _175
REMARK   73  A    between atoms: _174  and  _177
REMARK   74  A    between atoms: _177  and  _178
REMARK   75  A    between atoms: _183  and  _185
REMARK   76  A    between atoms: _185  and  _186
REMARK   77  A    between atoms: _185  and  _188
REMARK   78  A    between atoms: _188  and  _189
REMARK   79  A    between atoms: _192  and  _194
REMARK   80  A    between atoms: _194  and  _195
REMARK   81  A    between atoms: _194  and  _197
REMARK   82  A    between atoms: _199  and  _201
REMARK   83  A    between atoms: _201  and  _202
REMARK   84  A    between atoms: _204  and  _206
REMARK   85  A    between atoms: _206  and  _207
REMARK   86  A    between atoms: _206  and  _209
REMARK   87  A    between atoms: _209  and  _210
REMARK   88  A    between atoms: _213  and  _215
REMARK   89  A    between atoms: _215  and  _216
REMARK   90  A    between atoms: _215  and  _218
REMARK   91  A    between atoms: _218  and  _219
REMARK   92  A    between atoms: _222  and  _224
REMARK   93  A    between atoms: _224  and  _225
REMARK   94  A    between atoms: _224  and  _227
REMARK   95  A    between atoms: _227  and  _228
REMARK   96  A    between atoms: _230  and  _232
REMARK   97  A    between atoms: _232  and  _233
REMARK   98  A    between atoms: _232  and  _235
REMARK   99  A    between atoms: _237  and  _239
REMARK  100  A    between atoms: _239  and  _240
REMARK  101  A    between atoms: _239  and  _242
REMARK  102  A    between atoms: _242  and  _243
REMARK  103  A    between atoms: _245  and  _247
REMARK  104  A    between atoms: _247  and  _248
REMARK  105  A    between atoms: _247  and  _250
REMARK  106  A    between atoms: _250  and  _251
REMARK  107  A    between atoms: _253  and  _255
REMARK  108  A    between atoms: _255  and  _256
REMARK  109  A    between atoms: _255  and  _258
REMARK  110  A    between atoms: _258  and  _259
REMARK  111  A    between atoms: _264  and  _266
REMARK  112  A    between atoms: _266  and  _267
REMARK  113  A    between atoms: _266  and  _269
REMARK  114  A    between atoms: _269  and  _270
REMARK  115  A    between atoms: _275  and  _276
REMARK  116  A    between atoms: _278  and  _280
REMARK  117  A    between atoms: _280  and  _281
REMARK  118  A    between atoms: _280  and  _283
REMARK  119  A    between atoms: _283  and  _284
REMARK  120  A    between atoms: _287  and  _289
REMARK  121  A    between atoms: _289  and  _290
REMARK  122  A    between atoms: _289  and  _292
REMARK  123  A    between atoms: _292  and  _293
REMARK  124  A    between atoms: _296  and  _298
REMARK  125  A    between atoms: _298  and  _299
REMARK  126  A    between atoms: _298  and  _301
REMARK  127  A    between atoms: _301  and  _302
REMARK  128  A    between atoms: _302  and  _303
REMARK  129  A    between atoms: _303  and  _304
REMARK  130  A    between atoms: _313  and  _315
REMARK  131  A    between atoms: _315  and  _316
REMARK  132  A    between atoms: _315  and  _318
REMARK  133  A    between atoms: _318  and  _319
REMARK  134  A    between atoms: _323  and  _324
REMARK  135  A    between atoms: _329  and  _331
REMARK  136  A    between atoms: _331  and  _332
REMARK  137  A    between atoms: _331  and  _334
REMARK  138  A    between atoms: _334  and  _335
REMARK  139  A    between atoms: _335  and  _336
REMARK  140  A    between atoms: _336  and  _337
REMARK  141  A    between atoms: _346  and  _348
REMARK  142  A    between atoms: _348  and  _349
REMARK  143  A    between atoms: _348  and  _351
REMARK  144  A    between atoms: _351  and  _352
REMARK  145  A    between atoms: _352  and  _353
REMARK  146  A    between atoms: _356  and  _358
REMARK  147  A    between atoms: _358  and  _359
REMARK  148  A    between atoms: _358  and  _361
REMARK  149  A    between atoms: _364  and  _366
REMARK  150  A    between atoms: _366  and  _367
REMARK  151  A    between atoms: _366  and  _369
REMARK  152  A    between atoms: _369  and  _370
REMARK  153  A    between atoms: _375  and  _377
REMARK  154  A    between atoms: _377  and  _378
REMARK  155  A    between atoms: _377  and  _380
REMARK  156  A    between atoms: _380  and  _381
REMARK  157  A    between atoms: _383  and  _385
REMARK  158  A    between atoms: _385  and  _386
REMARK  159  A    between atoms: _385  and  _388
REMARK  160  A    between atoms: _388  and  _389
REMARK  161  A    between atoms: _399  and  _401
REMARK  162  A    between atoms: _401  and  _402
REMARK  163  A    between atoms: _401  and  _404
REMARK  164  A    between atoms: _404  and  _405
REMARK  165  A    between atoms: _408  and  _410
REMARK  166  A    between atoms: _410  and  _411
REMARK  167  A    between atoms: _413  and  _415
REMARK  168  A    between atoms: _415  and  _416
REMARK  169  A    between atoms: _415  and  _418
REMARK  170  A    between atoms: _418  and  _419
REMARK  171  A    between atoms: _424  and  _426
REMARK  172  A    between atoms: _426  and  _427
REMARK  173  A    between atoms: _426  and  _429
REMARK  174  A    between atoms: _429  and  _430
REMARK  175  A    between atoms: _433  and  _435
REMARK  176  A    between atoms: _435  and  _436
REMARK  177  A    between atoms: _435  and  _438
REMARK  178  A    between atoms: _438  and  _439
REMARK  179  A    between atoms: _442  and  _444
REMARK  180  A    between atoms: _444  and  _445
REMARK  181  A    between atoms: _444  and  _447
REMARK  182  A    between atoms: _447  and  _448
REMARK  183  A    between atoms: _448  and  _449
REMARK  184  A    between atoms: _451  and  _453
REMARK  185  A    between atoms: _453  and  _454
REMARK  186  A    between atoms: _453  and  _456
REMARK  187  A    between atoms: _456  and  _457
REMARK  188  A    between atoms: _463  and  _465
REMARK  189  A    between atoms: _465  and  _466
REMARK  190  A    between atoms: _470  and  _471
REMARK  191  A    between atoms: _476  and  _478
REMARK  192  A    between atoms: _478  and  _479
REMARK  193  A    between atoms: _478  and  _481
REMARK  194  A    between atoms: _481  and  _482
REMARK  195  A    between atoms: _485  and  _487
REMARK  196  A    between atoms: _487  and  _488
REMARK  197  A    between atoms: _487  and  _490
REMARK  198  A    between atoms: _490  and  _491
REMARK  199  A    between atoms: _501  and  _503
REMARK  200  A    between atoms: _503  and  _504
REMARK  201  A    between atoms: _503  and  _506
REMARK  202  A    between atoms: _508  and  _510
REMARK  203  A    between atoms: _510  and  _511
REMARK  204  A    between atoms: _510  and  _513
REMARK  205  A    between atoms: _513  and  _514
REMARK  206  A    between atoms: _514  and  _515
REMARK  207  A    between atoms: _518  and  _520
REMARK  208  A    between atoms: _520  and  _521
REMARK  209  A    between atoms: _520  and  _523
REMARK  210  A    between atoms: _523  and  _524
REMARK  211  A    between atoms: _527  and  _529
REMARK  212  A    between atoms: _529  and  _530
REMARK  213  A    between atoms: _529  and  _532
REMARK  214  A    between atoms: _532  and  _533
REMARK  215  A    between atoms: _538  and  _539
REMARK  216  A    between atoms: _541  and  _543
REMARK  217  A    between atoms: _543  and  _544
REMARK  218  A    between atoms: _546  and  _548
REMARK  219  A    between atoms: _548  and  _549
REMARK  220  A    between atoms: _552  and  _554
REMARK  221  A    between atoms: _554  and  _555
REMARK  222  A    between atoms: _554  and  _557
REMARK  223  A    between atoms: _559  and  _561
REMARK  224  A    between atoms: _561  and  _562
REMARK  225  A    between atoms: _561  and  _564
REMARK  226  A    between atoms: _564  and  _565
REMARK  227  A    between atoms: _570  and  _571
REMARK  228  A    between atoms: _573  and  _575
REMARK  229  A    between atoms: _575  and  _576
REMARK  230  A    between atoms: _575  and  _578
REMARK  231  A    between atoms: _578  and  _579
REMARK  232  A    between atoms: _584  and  _586
REMARK  233  A    between atoms: _586  and  _587
REMARK  234  A    between atoms: _586  and  _589
REMARK  235  A    between atoms: _589  and  _590
REMARK  236  A    between atoms: _596  and  _598
REMARK  237  A    between atoms: _598  and  _599
REMARK  238  A    between atoms: _602  and  _604
REMARK  239  A    between atoms: _604  and  _605
REMARK  240  A    between atoms: _607  and  _609
REMARK  241  A    between atoms: _609  and  _610
REMARK  242  A    between atoms: _609  and  _612
REMARK  243  A    between atoms: _612  and  _613
REMARK  244  A    between atoms: _618  and  _619
REMARK  245  A    between atoms: _621  and  _623
REMARK  246  A    between atoms: _623  and  _624
REMARK  247  A    between atoms: _623  and  _626
REMARK  248  A    between atoms: _626  and  _627
REMARK  249  A    between atoms: _629  and  _631
REMARK  250  A    between atoms: _631  and  _632
REMARK  251  A    between atoms: _634  and  _636
REMARK  252  A    between atoms: _636  and  _637
REMARK                            x       y       z     vdW  Elec       q    Type
REMARK                         _______ _______ _______ _____ _____    ______ ____
ROOT
ATOM      1  O   HOH     1      42.484   8.309 -19.119  0.00  0.00    +0.000 OA
ENDROOT
TORSDOF 0
REMARK  Name = ../refined-set-2016/3hkw/3hkw_pocket.pdb
REMARK  252 active torsions:
REMARK  status: ('A' for Active; 'I' for Inactive)
REMARK    1  A    between atoms: _1  and  _3
REMARK    2  A    between atoms: _3  and  _4
REMARK    3  A    between atoms: _3  and  _6
REMARK    4  A    between atoms: _6  and  _7
REMARK    5  A    between atoms: _7  and  _8
REMARK    6  A    between atoms: _8  and  _9
REMARK    7  A    between atoms: _9  and  _10
REMARK    8  A    between atoms: _14  and  _16
REMARK    9  A    between atoms: _16  and  _17
REMARK   10  A    between atoms: _16  and  _19
REMARK   11  A    between atoms: _19  and  _20
REMARK   12  A    between atoms: _20  and  _21
REMARK   13  A    between atoms: _24  and  _26
REMARK   14  A    between atoms: _26  and  _27
REMARK   15  A    between atoms: _26  and  _29
REMARK   16  A    between atoms: _29  and  _30
REMARK   17  A    between atoms: _30  and  _31
REMARK   18  A    between atoms: _31  and  _32
REMARK   19  A    between atoms: _41  and  _43
REMARK   20  A    between atoms: _43  and  _44
REMARK   21  A    between atoms: _46  and  _48
REMARK   22  A    between atoms: _48  and  _49
REMARK   23  A    between atoms: _48  and  _51
REMARK   24  A    between atoms: _51  and  _52
REMARK   25  A    between atoms: _58  and  _60
REMARK   26  A    between atoms: _60  and  _61
REMARK   27  A    between atoms: _60  and  _63
REMARK   28  A    between atoms: _63  and  _64
REMARK   29  A    between atoms: _69  and  _70
REMARK   30  A    between atoms: _72  and  _74
REMARK   31  A    between atoms: _74  and  _75
REMARK   32  A    between atoms: _74  and  _77
REMARK   33  A    between atoms: _77  and  _78
REMARK   34  A    between atoms: _81  and  _82
REMARK   35  A    between atoms: _87  and  _89
REMARK   36  A    between atoms: _89  and  _90
REMARK   37  A    between atoms: _92  and  _94
REMARK   38  A    between atoms: _94  and  _95
REMARK   39  A    between atoms: _94  and  _97
REMARK   40  A    between atoms: _97  and  _98
REMARK   41  A    between atoms: _98  and  _99
REMARK   42  A    between atoms: _104  and  _106
REMARK   43  A    between atoms: _106  and  _107
REMARK   44  A    between atoms: _106  and  _109
REMARK   45  A    between atoms: _109  and  _110
REMARK   46  A    between atoms: _110  and  _111
REMARK   47  A    between atoms: _111  and  _112
REMARK   48  A    between atoms: _121  and  _123
REMARK   49  A    between atoms: _123  and  _124
REMARK   50  A    between atoms: _123  and  _126
REMARK   51  A    between atoms: _129  and  _131
REMARK   52  A    between atoms: _131  and  _132
REMARK   53  A    between atoms: _131  and  _134
REMARK   54  A    between atoms: _134  and  _135
REMARK   55  A    between atoms: _138  and  _140
REMARK   56  A    between atoms: _140  and  _141
REMARK   57  A    between atoms: _140  and  _143
REMARK   58  A    between atoms: _143  and  _144
REMARK   59  A    between atoms: _147  and  _149
REMARK   60  A    between atoms: _149  and  _150
REMARK   61  A    between atoms: _149  and  _152
REMARK   62  A    between atoms: _152  and  _153
REMARK   63  A    between atoms: _155  and  _157
REMARK   64  A    between atoms: _157  and  _158
REMARK   65  A    between atoms: _157  and  _160
REMARK   66  A    between atoms: _160  and  _161
REMARK   67  A    between atoms: _164  and  _166
REMARK   68  A    between atoms: _166  and  _167
REMARK   69  A    between atoms: _166  and  _169
REMARK   70  A    between atoms: _169  and  _170
REMARK   71  A    between atoms: _172  and  _174
REMARK   72  A    between atoms: _174  and  _175
REMARK   73  A    between atoms: _174  and  _177
REMARK   74  A    between atoms: _177  and  _178
REMARK   75  A    between atoms: _183  and  _185
REMARK   76  A    between atoms: _185  and  _186
REMARK   77  A    between atoms: _185  and  _188
REMARK   78  A    between atoms: _188  and  _189
REMARK   79  A    between atoms: _192  and  _194
REMARK   80  A    between atoms: _194  and  _195
REMARK   81  A    between atoms: _194  and  _197
REMARK   82  A    between atoms: _199  and  _201
REMARK   83  A    between atoms: _201  and  _202
REMARK   84  A    between atoms: _204  and  _206
REMARK   85  A    between atoms: _206  and  _207
REMARK   86  A    between atoms: _206  and  _209
REMARK   87  A    between atoms: _209  and  _210
REMARK   88  A    between atoms: _213  and  _215
REMARK   89  A    between atoms: _215  and  _216
REMARK   90  A    between atoms: _215  and  _218
REMARK   91  A    between atoms: _218  and  _219
REMARK   92  A    between atoms: _222  and  _224
REMARK   93  A    between atoms: _224  and  _225
REMARK   94  A    between atoms: _224  and  _227
REMARK   95  A    between atoms: _227  and  _228
REMARK   96  A    between atoms: _230  and  _232
REMARK   97  A    between atoms: _232  and  _233
REMARK   98  A    between atoms: _232  and  _235
REMARK   99  A    between atoms: _237  and  _239
REMARK  100  A    between atoms: _239  and  _240
REMARK  101  A    between atoms: _239  and  _242
REMARK  102  A    between atoms: _242  and  _243
REMARK  103  A    between atoms: _245  and  _247
REMARK  104  A    between atoms: _247  and  _248
REMARK  105  A    between atoms: _247  and  _250
REMARK  106  A    between atoms: _250  and  _251
REMARK  107  A    between atoms: _253  and  _255
REMARK  108  A    between atoms: _255  and  _256
REMARK  109  A    between atoms: _255  and  _258
REMARK  110  A    between atoms: _258  and  _259
REMARK  111  A    between atoms: _264  and  _266
REMARK  112  A    between atoms: _266  and  _267
REMARK  113  A    between atoms: _266  and  _269
REMARK  114  A    between atoms: _269  and  _270
REMARK  115  A    between atoms: _275  and  _276
REMARK  116  A    between atoms: _278  and  _280
REMARK  117  A    between atoms: _280  and  _281
REMARK  118  A    between atoms: _280  and  _283
REMARK  119  A    between atoms: _283  and  _284
REMARK  120  A    between atoms: _287  and  _289
REMARK  121  A    between atoms: _289  and  _290
REMARK  122  A    between atoms: _289  and  _292
REMARK  123  A    between atoms: _292  and  _293
REMARK  124  A    between atoms: _296  and  _298
REMARK  125  A    between atoms: _298  and  _299
REMARK  126  A    between atoms: _298  and  _301
REMARK  127  A    between atoms: _301  and  _302
REMARK  128  A    between atoms: _302  and  _303
REMARK  129  A    between atoms: _303  and  _304
REMARK  130  A    between atoms: _313  and  _315
REMARK  131  A    between atoms: _315  and  _316
REMARK  132  A    between atoms: _315  and  _318
REMARK  133  A    between atoms: _318  and  _319
REMARK  134  A    between atoms: _323  and  _324
REMARK  135  A    between atoms: _329  and  _331
REMARK  136  A    between atoms: _331  and  _332
REMARK  137  A    between atoms: _331  and  _334
REMARK  138  A    between atoms: _334  and  _335
REMARK  139  A    between atoms: _335  and  _336
REMARK  140  A    between atoms: _336  and  _337
REMARK  141  A    between atoms: _346  and  _348
REMARK  142  A    between atoms: _348  and  _349
REMARK  143  A    between atoms: _348  and  _351
REMARK  144  A    between atoms: _351  and  _352
REMARK  145  A    between atoms: _352  and  _353
REMARK  146  A    between atoms: _356  and  _358
REMARK  147  A    between atoms: _358  and  _359
REMARK  148  A    between atoms: _358  and  _361
REMARK  149  A    between atoms: _364  and  _366
REMARK  150  A    between atoms: _366  and  _367
REMARK  151  A    between atoms: _366  and  _369
REMARK  152  A    between atoms: _369  and  _370
REMARK  153  A    between atoms: _375  and  _377
REMARK  154  A    between atoms: _377  and  _378
REMARK  155  A    between atoms: _377  and  _380
REMARK  156  A    between atoms: _380  and  _381
REMARK  157  A    between atoms: _383  and  _385
REMARK  158  A    between atoms: _385  and  _386
REMARK  159  A    between atoms: _385  and  _388
REMARK  160  A    between atoms: _388  and  _389
REMARK  161  A    between atoms: _399  and  _401
REMARK  162  A    between atoms: _401  and  _402
REMARK  163  A    between atoms: _401  and  _404
REMARK  164  A    between atoms: _404  and  _405
REMARK  165  A    between atoms: _408  and  _410
REMARK  166  A    between atoms: _410  and  _411
REMARK  167  A    between atoms: _413  and  _415
REMARK  168  A    between atoms: _415  and  _416
REMARK  169  A    between atoms: _415  and  _418
REMARK  170  A    between atoms: _418  and  _419
REMARK  171  A    between atoms: _424  and  _426
REMARK  172  A    between atoms: _426  and  _427
REMARK  173  A    between atoms: _426  and  _429
REMARK  174  A    between atoms: _429  and  _430
REMARK  175  A    between atoms: _433  and  _435
REMARK  176  A    between atoms: _435  and  _436
REMARK  177  A    between atoms: _435  and  _438
REMARK  178  A    between atoms: _438  and  _439
REMARK  179  A    between atoms: _442  and  _444
REMARK  180  A    between atoms: _444  and  _445
REMARK  181  A    between atoms: _444  and  _447
REMARK  182  A    between atoms: _447  and  _448
REMARK  183  A    between atoms: _448  and  _449
REMARK  184  A    between atoms: _451  and  _453
REMARK  185  A    between atoms: _453  and  _454
REMARK  186  A    between atoms: _453  and  _456
REMARK  187  A    between atoms: _456  and  _457
REMARK  188  A    between atoms: _463  and  _465
REMARK  189  A    between atoms: _465  and  _466
REMARK  190  A    between atoms: _470  and  _471
REMARK  191  A    between atoms: _476  and  _478
REMARK  192  A    between atoms: _478  and  _479
REMARK  193  A    between atoms: _478  and  _481
REMARK  194  A    between atoms: _481  and  _482
REMARK  195  A    between atoms: _485  and  _487
REMARK  196  A    between atoms: _487  and  _488
REMARK  197  A    between atoms: _487  and  _490
REMARK  198  A    between atoms: _490  and  _491
REMARK  199  A    between atoms: _501  and  _503
REMARK  200  A    between atoms: _503  and  _504
REMARK  201  A    between atoms: _503  and  _506
REMARK  202  A    between atoms: _508  and  _510
REMARK  203  A    between atoms: _510  and  _511
REMARK  204  A    between atoms: _510  and  _513
REMARK  205  A    between atoms: _513  and  _514
REMARK  206  A    between atoms: _514  and  _515
REMARK  207  A    between atoms: _518  and  _520
REMARK  208  A    between atoms: _520  and  _521
REMARK  209  A    between atoms: _520  and  _523
REMARK  210  A    between atoms: _523  and  _524
REMARK  211  A    between atoms: _527  and  _529
REMARK  212  A    between atoms: _529  and  _530
REMARK  213  A    between atoms: _529  and  _532
REMARK  214  A    between atoms: _532  and  _533
REMARK  215  A    between atoms: _538  and  _539
REMARK  216  A    between atoms: _541  and  _543
REMARK  217  A    between atoms: _543  and  _544
REMARK  218  A    between atoms: _546  and  _548
REMARK  219  A    between atoms: _548  and  _549
REMARK  220  A    between atoms: _552  and  _554
REMARK  221  A    between atoms: _554  and  _555
REMARK  222  A    between atoms: _554  and  _557
REMARK  223  A    between atoms: _559  and  _561
REMARK  224  A    between atoms: _561  and  _562
REMARK  225  A    between atoms: _561  and  _564
REMARK  226  A    between atoms: _564  and  _565
REMARK  227  A    between atoms: _570  and  _571
REMARK  228  A    between atoms: _573  and  _575
REMARK  229  A    between atoms: _575  and  _576
REMARK  230  A    between atoms: _575  and  _578
REMARK  231  A    between atoms: _578  and  _579
REMARK  232  A    between atoms: _584  and  _586
REMARK  233  A    between atoms: _586  and  _587
REMARK  234  A    between atoms: _586  and  _589
REMARK  235  A    between atoms: _589  and  _590
REMARK  236  A    between atoms: _596  and  _598
REMARK  237  A    between atoms: _598  and  _599
REMARK  238  A    between atoms: _602  and  _604
REMARK  239  A    between atoms: _604  and  _605
REMARK  240  A    between atoms: _607  and  _609
REMARK  241  A    between atoms: _609  and  _610
REMARK  242  A    between atoms: _609  and  _612
REMARK  243  A    between atoms: _612  and  _613
REMARK  244  A    between atoms: _618  and  _619
REMARK  245  A    between atoms: _621  and  _623
REMARK  246  A    between atoms: _623  and  _624
REMARK  247  A    between atoms: _623  and  _626
REMARK  248  A    between atoms: _626  and  _627
REMARK  249  A    between atoms: _629  and  _631
REMARK  250  A    between atoms: _631  and  _632
REMARK  251  A    between atoms: _634  and  _636
REMARK  252  A    between atoms: _636  and  _637
REMARK                            x       y       z     vdW  Elec       q    Type
REMARK                         _______ _______ _______ _____ _____    ______ ____
ROOT
ATOM      1  O   HOH     1      42.890  -2.288 -11.050  0.00  0.00    +0.000 OA
ENDROOT
TORSDOF 0
REMARK  Name = ../refined-set-2016/3hkw/3hkw_pocket.pdb
REMARK  252 active torsions:
REMARK  status: ('A' for Active; 'I' for Inactive)
REMARK    1  A    between atoms: _1  and  _3
REMARK    2  A    between atoms: _3  and  _4
REMARK    3  A    between atoms: _3  and  _6
REMARK    4  A    between atoms: _6  and  _7
REMARK    5  A    between atoms: _7  and  _8
REMARK    6  A    between atoms: _8  and  _9
REMARK    7  A    between atoms: _9  and  _10
REMARK    8  A    between atoms: _14  and  _16
REMARK    9  A    between atoms: _16  and  _17
REMARK   10  A    between atoms: _16  and  _19
REMARK   11  A    between atoms: _19  and  _20
REMARK   12  A    between atoms: _20  and  _21
REMARK   13  A    between atoms: _24  and  _26
REMARK   14  A    between atoms: _26  and  _27
REMARK   15  A    between atoms: _26  and  _29
REMARK   16  A    between atoms: _29  and  _30
REMARK   17  A    between atoms: _30  and  _31
REMARK   18  A    between atoms: _31  and  _32
REMARK   19  A    between atoms: _41  and  _43
REMARK   20  A    between atoms: _43  and  _44
REMARK   21  A    between atoms: _46  and  _48
REMARK   22  A    between atoms: _48  and  _49
REMARK   23  A    between atoms: _48  and  _51
REMARK   24  A    between atoms: _51  and  _52
REMARK   25  A    between atoms: _58  and  _60
REMARK   26  A    between atoms: _60  and  _61
REMARK   27  A    between atoms: _60  and  _63
REMARK   28  A    between atoms: _63  and  _64
REMARK   29  A    between atoms: _69  and  _70
REMARK   30  A    between atoms: _72  and  _74
REMARK   31  A    between atoms: _74  and  _75
REMARK   32  A    between atoms: _74  and  _77
REMARK   33  A    between atoms: _77  and  _78
REMARK   34  A    between atoms: _81  and  _82
REMARK   35  A    between atoms: _87  and  _89
REMARK   36  A    between atoms: _89  and  _90
REMARK   37  A    between atoms: _92  and  _94
REMARK   38  A    between atoms: _94  and  _95
REMARK   39  A    between atoms: _94  and  _97
REMARK   40  A    between atoms: _97  and  _98
REMARK   41  A    between atoms: _98  and  _99
REMARK   42  A    between atoms: _104  and  _106
REMARK   43  A    between atoms: _106  and  _107
REMARK   44  A    between atoms: _106  and  _109
REMARK   45  A    between atoms: _109  and  _110
REMARK   46  A    between atoms: _110  and  _111
REMARK   47  A    between atoms: _111  and  _112
REMARK   48  A    between atoms: _121  and  _123
REMARK   49  A    between atoms: _123  and  _124
REMARK   50  A    between atoms: _123  and  _126
REMARK   51  A    between atoms: _129  and  _131
REMARK   52  A    between atoms: _131  and  _132
REMARK   53  A    between atoms: _131  and  _134
REMARK   54  A    between atoms: _134  and  _135
REMARK   55  A    between atoms: _138  and  _140
REMARK   56  A    between atoms: _140  and  _141
REMARK   57  A    between atoms: _140  and  _143
REMARK   58  A    between atoms: _143  and  _144
REMARK   59  A    between atoms: _147  and  _149
REMARK   60  A    between atoms: _149  and  _150
REMARK   61  A    between atoms: _149  and  _152
REMARK   62  A    between atoms: _152  and  _153
REMARK   63  A    between atoms: _155  and  _157
REMARK   64  A    between atoms: _157  and  _158
REMARK   65  A    between atoms: _157  and  _160
REMARK   66  A    between atoms: _160  and  _161
REMARK   67  A    between atoms: _164  and  _166
REMARK   68  A    between atoms: _166  and  _167
REMARK   69  A    between atoms: _166  and  _169
REMARK   70  A    between atoms: _169  and  _170
REMARK   71  A    between atoms: _172  and  _174
REMARK   72  A    between atoms: _174  and  _175
REMARK   73  A    between atoms: _174  and  _177
REMARK   74  A    between atoms: _177  and  _178
REMARK   75  A    between atoms: _183  and  _185
REMARK   76  A    between atoms: _185  and  _186
REMARK   77  A    between atoms: _185  and  _188
REMARK   78  A    between atoms: _188  and  _189
REMARK   79  A    between atoms: _192  and  _194
REMARK   80  A    between atoms: _194  and  _195
REMARK   81  A    between atoms: _194  and  _197
REMARK   82  A    between atoms: _199  and  _201
REMARK   83  A    between atoms: _201  and  _202
REMARK   84  A    between atoms: _204  and  _206
REMARK   85  A    between atoms: _206  and  _207
REMARK   86  A    between atoms: _206  and  _209
REMARK   87  A    between atoms: _209  and  _210
REMARK   88  A    between atoms: _213  and  _215
REMARK   89  A    between atoms: _215  and  _216
REMARK   90  A    between atoms: _215  and  _218
REMARK   91  A    between atoms: _218  and  _219
REMARK   92  A    between atoms: _222  and  _224
REMARK   93  A    between atoms: _224  and  _225
REMARK   94  A    between atoms: _224  and  _227
REMARK   95  A    between atoms: _227  and  _228
REMARK   96  A    between atoms: _230  and  _232
REMARK   97  A    between atoms: _232  and  _233
REMARK   98  A    between atoms: _232  and  _235
REMARK   99  A    between atoms: _237  and  _239
REMARK  100  A    between atoms: _239  and  _240
REMARK  101  A    between atoms: _239  and  _242
REMARK  102  A    between atoms: _242  and  _243
REMARK  103  A    between atoms: _245  and  _247
REMARK  104  A    between atoms: _247  and  _248
REMARK  105  A    between atoms: _247  and  _250
REMARK  106  A    between atoms: _250  and  _251
REMARK  107  A    between atoms: _253  and  _255
REMARK  108  A    between atoms: _255  and  _256
REMARK  109  A    between atoms: _255  and  _258
REMARK  110  A    between atoms: _258  and  _259
REMARK  111  A    between atoms: _264  and  _266
REMARK  112  A    between atoms: _266  and  _267
REMARK  113  A    between atoms: _266  and  _269
REMARK  114  A    between atoms: _269  and  _270
REMARK  115  A    between atoms: _275  and  _276
REMARK  116  A    between atoms: _278  and  _280
REMARK  117  A    between atoms: _280  and  _281
REMARK  118  A    between atoms: _280  and  _283
REMARK  119  A    between atoms: _283  and  _284
REMARK  120  A    between atoms: _287  and  _289
REMARK  121  A    between atoms: _289  and  _290
REMARK  122  A    between atoms: _289  and  _292
REMARK  123  A    between atoms: _292  and  _293
REMARK  124  A    between atoms: _296  and  _298
REMARK  125  A    between atoms: _298  and  _299
REMARK  126  A    between atoms: _298  and  _301
REMARK  127  A    between atoms: _301  and  _302
REMARK  128  A    between atoms: _302  and  _303
REMARK  129  A    between atoms: _303  and  _304
REMARK  130  A    between atoms: _313  and  _315
REMARK  131  A    between atoms: _315  and  _316
REMARK  132  A    between atoms: _315  and  _318
REMARK  133  A    between atoms: _318  and  _319
REMARK  134  A    between atoms: _323  and  _324
REMARK  135  A    between atoms: _329  and  _331
REMARK  136  A    between atoms: _331  and  _332
REMARK  137  A    between atoms: _331  and  _334
REMARK  138  A    between atoms: _334  and  _335
REMARK  139  A    between atoms: _335  and  _336
REMARK  140  A    between atoms: _336  and  _337
REMARK  141  A    between atoms: _346  and  _348
REMARK  142  A    between atoms: _348  and  _349
REMARK  143  A    between atoms: _348  and  _351
REMARK  144  A    between atoms: _351  and  _352
REMARK  145  A    between atoms: _352  and  _353
REMARK  146  A    between atoms: _356  and  _358
REMARK  147  A    between atoms: _358  and  _359
REMARK  148  A    between atoms: _358  and  _361
REMARK  149  A    between atoms: _364  and  _366
REMARK  150  A    between atoms: _366  and  _367
REMARK  151  A    between atoms: _366  and  _369
REMARK  152  A    between atoms: _369  and  _370
REMARK  153  A    between atoms: _375  and  _377
REMARK  154  A    between atoms: _377  and  _378
REMARK  155  A    between atoms: _377  and  _380
REMARK  156  A    between atoms: _380  and  _381
REMARK  157  A    between atoms: _383  and  _385
REMARK  158  A    between atoms: _385  and  _386
REMARK  159  A    between atoms: _385  and  _388
REMARK  160  A    between atoms: _388  and  _389
REMARK  161  A    between atoms: _399  and  _401
REMARK  162  A    between atoms: _401  and  _402
REMARK  163  A    between atoms: _401  and  _404
REMARK  164  A    between atoms: _404  and  _405
REMARK  165  A    between atoms: _408  and  _410
REMARK  166  A    between atoms: _410  and  _411
REMARK  167  A    between atoms: _413  and  _415
REMARK  168  A    between atoms: _415  and  _416
REMARK  169  A    between atoms: _415  and  _418
REMARK  170  A    between atoms: _418  and  _419
REMARK  171  A    between atoms: _424  and  _426
REMARK  172  A    between atoms: _426  and  _427
REMARK  173  A    between atoms: _426  and  _429
REMARK  174  A    between atoms: _429  and  _430
REMARK  175  A    between atoms: _433  and  _435
REMARK  176  A    between atoms: _435  and  _436
REMARK  177  A    between atoms: _435  and  _438
REMARK  178  A    between atoms: _438  and  _439
REMARK  179  A    between atoms: _442  and  _444
REMARK  180  A    between atoms: _444  and  _445
REMARK  181  A    between atoms: _444  and  _447
REMARK  182  A    between atoms: _447  and  _448
REMARK  183  A    between atoms: _448  and  _449
REMARK  184  A    between atoms: _451  and  _453
REMARK  185  A    between atoms: _453  and  _454
REMARK  186  A    between atoms: _453  and  _456
REMARK  187  A    between atoms: _456  and  _457
REMARK  188  A    between atoms: _463  and  _465
REMARK  189  A    between atoms: _465  and  _466
REMARK  190  A    between atoms: _470  and  _471
REMARK  191  A    between atoms: _476  and  _478
REMARK  192  A    between atoms: _478  and  _479
REMARK  193  A    between atoms: _478  and  _481
REMARK  194  A    between atoms: _481  and  _482
REMARK  195  A    between atoms: _485  and  _487
REMARK  196  A    between atoms: _487  and  _488
REMARK  197  A    between atoms: _487  and  _490
REMARK  198  A    between atoms: _490  and  _491
REMARK  199  A    between atoms: _501  and  _503
REMARK  200  A    between atoms: _503  and  _504
REMARK  201  A    between atoms: _503  and  _506
REMARK  202  A    between atoms: _508  and  _510
REMARK  203  A    between atoms: _510  and  _511
REMARK  204  A    between atoms: _510  and  _513
REMARK  205  A    between atoms: _513  and  _514
REMARK  206  A    between atoms: _514  and  _515
REMARK  207  A    between atoms: _518  and  _520
REMARK  208  A    between atoms: _520  and  _521
REMARK  209  A    between atoms: _520  and  _523
REMARK  210  A    between atoms: _523  and  _524
REMARK  211  A    between atoms: _527  and  _529
REMARK  212  A    between atoms: _529  and  _530
REMARK  213  A    between atoms: _529  and  _532
REMARK  214  A    between atoms: _532  and  _533
REMARK  215  A    between atoms: _538  and  _539
REMARK  216  A    between atoms: _541  and  _543
REMARK  217  A    between atoms: _543  and  _544
REMARK  218  A    between atoms: _546  and  _548
REMARK  219  A    between atoms: _548  and  _549
REMARK  220  A    between atoms: _552  and  _554
REMARK  221  A    between atoms: _554  and  _555
REMARK  222  A    between atoms: _554  and  _557
REMARK  223  A    between atoms: _559  and  _561
REMARK  224  A    between atoms: _561  and  _562
REMARK  225  A    between atoms: _561  and  _564
REMARK  226  A    between atoms: _564  and  _565
REMARK  227  A    between atoms: _570  and  _571
REMARK  228  A    between atoms: _573  and  _575
REMARK  229  A    between atoms: _575  and  _576
REMARK  230  A    between atoms: _575  and  _578
REMARK  231  A    between atoms: _578  and  _579
REMARK  232  A    between atoms: _584  and  _586
REMARK  233  A    between atoms: _586  and  _587
REMARK  234  A    between atoms: _586  and  _589
REMARK  235  A    between atoms: _589  and  _590
REMARK  236  A    between atoms: _596  and  _598
REMARK  237  A    between atoms: _598  and  _599
REMARK  238  A    between atoms: _602  and  _604
REMARK  239  A    between atoms: _604  and  _605
REMARK  240  A    between atoms: _607  and  _609
REMARK  241  A    between atoms: _609  and  _610
REMARK  242  A    between atoms: _609  and  _612
REMARK  243  A    between atoms: _612  and  _613
REMARK  244  A    between atoms: _618  and  _619
REMARK  245  A    between atoms: _621  and  _623
REMARK  246  A    between atoms: _623  and  _624
REMARK  247  A    between atoms: _623  and  _626
REMARK  248  A    between atoms: _626  and  _627
REMARK  249  A    between atoms: _629  and  _631
REMARK  250  A    between atoms: _631  and  _632
REMARK  251  A    between atoms: _634  and  _636
REMARK  252  A    between atoms: _636  and  _637
REMARK                            x       y       z     vdW  Elec       q    Type
REMARK                         _______ _______ _______ _____ _____    ______ ____
ROOT
ATOM      1  O   HOH     1      43.207  -1.351 -21.988  0.00  0.00    +0.000 OA
ENDROOT
TORSDOF 0
REMARK  Name = ../refined-set-2016/3hkw/3hkw_pocket.pdb
REMARK  252 active torsions:
REMARK  status: ('A' for Active; 'I' for Inactive)
REMARK    1  A    between atoms: _1  and  _3
REMARK    2  A    between atoms: _3  and  _4
REMARK    3  A    between atoms: _3  and  _6
REMARK    4  A    between atoms: _6  and  _7
REMARK    5  A    between atoms: _7  and  _8
REMARK    6  A    between atoms: _8  and  _9
REMARK    7  A    between atoms: _9  and  _10
REMARK    8  A    between atoms: _14  and  _16
REMARK    9  A    between atoms: _16  and  _17
REMARK   10  A    between atoms: _16  and  _19
REMARK   11  A    between atoms: _19  and  _20
REMARK   12  A    between atoms: _20  and  _21
REMARK   13  A    between atoms: _24  and  _26
REMARK   14  A    between atoms: _26  and  _27
REMARK   15  A    between atoms: _26  and  _29
REMARK   16  A    between atoms: _29  and  _30
REMARK   17  A    between atoms: _30  and  _31
REMARK   18  A    between atoms: _31  and  _32
REMARK   19  A    between atoms: _41  and  _43
REMARK   20  A    between atoms: _43  and  _44
REMARK   21  A    between atoms: _46  and  _48
REMARK   22  A    between atoms: _48  and  _49
REMARK   23  A    between atoms: _48  and  _51
REMARK   24  A    between atoms: _51  and  _52
REMARK   25  A    between atoms: _58  and  _60
REMARK   26  A    between atoms: _60  and  _61
REMARK   27  A    between atoms: _60  and  _63
REMARK   28  A    between atoms: _63  and  _64
REMARK   29  A    between atoms: _69  and  _70
REMARK   30  A    between atoms: _72  and  _74
REMARK   31  A    between atoms: _74  and  _75
REMARK   32  A    between atoms: _74  and  _77
REMARK   33  A    between atoms: _77  and  _78
REMARK   34  A    between atoms: _81  and  _82
REMARK   35  A    between atoms: _87  and  _89
REMARK   36  A    between atoms: _89  and  _90
REMARK   37  A    between atoms: _92  and  _94
REMARK   38  A    between atoms: _94  and  _95
REMARK   39  A    between atoms: _94  and  _97
REMARK   40  A    between atoms: _97  and  _98
REMARK   41  A    between atoms: _98  and  _99
REMARK   42  A    between atoms: _104  and  _106
REMARK   43  A    between atoms: _106  and  _107
REMARK   44  A    between atoms: _106  and  _109
REMARK   45  A    between atoms: _109  and  _110
REMARK   46  A    between atoms: _110  and  _111
REMARK   47  A    between atoms: _111  and  _112
REMARK   48  A    between atoms: _121  and  _123
REMARK   49  A    between atoms: _123  and  _124
REMARK   50  A    between atoms: _123  and  _126
REMARK   51  A    between atoms: _129  and  _131
REMARK   52  A    between atoms: _131  and  _132
REMARK   53  A    between atoms: _131  and  _134
REMARK   54  A    between atoms: _134  and  _135
REMARK   55  A    between atoms: _138  and  _140
REMARK   56  A    between atoms: _140  and  _141
REMARK   57  A    between atoms: _140  and  _143
REMARK   58  A    between atoms: _143  and  _144
REMARK   59  A    between atoms: _147  and  _149
REMARK   60  A    between atoms: _149  and  _150
REMARK   61  A    between atoms: _149  and  _152
REMARK   62  A    between atoms: _152  and  _153
REMARK   63  A    between atoms: _155  and  _157
REMARK   64  A    between atoms: _157  and  _158
REMARK   65  A    between atoms: _157  and  _160
REMARK   66  A    between atoms: _160  and  _161
REMARK   67  A    between atoms: _164  and  _166
REMARK   68  A    between atoms: _166  and  _167
REMARK   69  A    between atoms: _166  and  _169
REMARK   70  A    between atoms: _169  and  _170
REMARK   71  A    between atoms: _172  and  _174
REMARK   72  A    between atoms: _174  and  _175
REMARK   73  A    between atoms: _174  and  _177
REMARK   74  A    between atoms: _177  and  _178
REMARK   75  A    between atoms: _183  and  _185
REMARK   76  A    between atoms: _185  and  _186
REMARK   77  A    between atoms: _185  and  _188
REMARK   78  A    between atoms: _188  and  _189
REMARK   79  A    between atoms: _192  and  _194
REMARK   80  A    between atoms: _194  and  _195
REMARK   81  A    between atoms: _194  and  _197
REMARK   82  A    between atoms: _199  and  _201
REMARK   83  A    between atoms: _201  and  _202
REMARK   84  A    between atoms: _204  and  _206
REMARK   85  A    between atoms: _206  and  _207
REMARK   86  A    between atoms: _206  and  _209
REMARK   87  A    between atoms: _209  and  _210
REMARK   88  A    between atoms: _213  and  _215
REMARK   89  A    between atoms: _215  and  _216
REMARK   90  A    between atoms: _215  and  _218
REMARK   91  A    between atoms: _218  and  _219
REMARK   92  A    between atoms: _222  and  _224
REMARK   93  A    between atoms: _224  and  _225
REMARK   94  A    between atoms: _224  and  _227
REMARK   95  A    between atoms: _227  and  _228
REMARK   96  A    between atoms: _230  and  _232
REMARK   97  A    between atoms: _232  and  _233
REMARK   98  A    between atoms: _232  and  _235
REMARK   99  A    between atoms: _237  and  _239
REMARK  100  A    between atoms: _239  and  _240
REMARK  101  A    between atoms: _239  and  _242
REMARK  102  A    between atoms: _242  and  _243
REMARK  103  A    between atoms: _245  and  _247
REMARK  104  A    between atoms: _247  and  _248
REMARK  105  A    between atoms: _247  and  _250
REMARK  106  A    between atoms: _250  and  _251
REMARK  107  A    between atoms: _253  and  _255
REMARK  108  A    between atoms: _255  and  _256
REMARK  109  A    between atoms: _255  and  _258
REMARK  110  A    between atoms: _258  and  _259
REMARK  111  A    between atoms: _264  and  _266
REMARK  112  A    between atoms: _266  and  _267
REMARK  113  A    between atoms: _266  and  _269
REMARK  114  A    between atoms: _269  and  _270
REMARK  115  A    between atoms: _275  and  _276
REMARK  116  A    between atoms: _278  and  _280
REMARK  117  A    between atoms: _280  and  _281
REMARK  118  A    between atoms: _280  and  _283
REMARK  119  A    between atoms: _283  and  _284
REMARK  120  A    between atoms: _287  and  _289
REMARK  121  A    between atoms: _289  and  _290
REMARK  122  A    between atoms: _289  and  _292
REMARK  123  A    between atoms: _292  and  _293
REMARK  124  A    between atoms: _296  and  _298
REMARK  125  A    between atoms: _298  and  _299
REMARK  126  A    between atoms: _298  and  _301
REMARK  127  A    between atoms: _301  and  _302
REMARK  128  A    between atoms: _302  and  _303
REMARK  129  A    between atoms: _303  and  _304
REMARK  130  A    between atoms: _313  and  _315
REMARK  131  A    between atoms: _315  and  _316
REMARK  132  A    between atoms: _315  and  _318
REMARK  133  A    between atoms: _318  and  _319
REMARK  134  A    between atoms: _323  and  _324
REMARK  135  A    between atoms: _329  and  _331
REMARK  136  A    between atoms: _331  and  _332
REMARK  137  A    between atoms: _331  and  _334
REMARK  138  A    between atoms: _334  and  _335
REMARK  139  A    between atoms: _335  and  _336
REMARK  140  A    between atoms: _336  and  _337
REMARK  141  A    between atoms: _346  and  _348
REMARK  142  A    between atoms: _348  and  _349
REMARK  143  A    between atoms: _348  and  _351
REMARK  144  A    between atoms: _351  and  _352
REMARK  145  A    between atoms: _352  and  _353
REMARK  146  A    between atoms: _356  and  _358
REMARK  147  A    between atoms: _358  and  _359
REMARK  148  A    between atoms: _358  and  _361
REMARK  149  A    between atoms: _364  and  _366
REMARK  150  A    between atoms: _366  and  _367
REMARK  151  A    between atoms: _366  and  _369
REMARK  152  A    between atoms: _369  and  _370
REMARK  153  A    between atoms: _375  and  _377
REMARK  154  A    between atoms: _377  and  _378
REMARK  155  A    between atoms: _377  and  _380
REMARK  156  A    between atoms: _380  and  _381
REMARK  157  A    between atoms: _383  and  _385
REMARK  158  A    between atoms: _385  and  _386
REMARK  159  A    between atoms: _385  and  _388
REMARK  160  A    between atoms: _388  and  _389
REMARK  161  A    between atoms: _399  and  _401
REMARK  162  A    between atoms: _401  and  _402
REMARK  163  A    between atoms: _401  and  _404
REMARK  164  A    between atoms: _404  and  _405
REMARK  165  A    between atoms: _408  and  _410
REMARK  166  A    between atoms: _410  and  _411
REMARK  167  A    between atoms: _413  and  _415
REMARK  168  A    between atoms: _415  and  _416
REMARK  169  A    between atoms: _415  and  _418
REMARK  170  A    between atoms: _418  and  _419
REMARK  171  A    between atoms: _424  and  _426
REMARK  172  A    between atoms: _426  and  _427
REMARK  173  A    between atoms: _426  and  _429
REMARK  174  A    between atoms: _429  and  _430
REMARK  175  A    between atoms: _433  and  _435
REMARK  176  A    between atoms: _435  and  _436
REMARK  177  A    between atoms: _435  and  _438
REMARK  178  A    between atoms: _438  and  _439
REMARK  179  A    between atoms: _442  and  _444
REMARK  180  A    between atoms: _444  and  _445
REMARK  181  A    between atoms: _444  and  _447
REMARK  182  A    between atoms: _447  and  _448
REMARK  183  A    between atoms: _448  and  _449
REMARK  184  A    between atoms: _451  and  _453
REMARK  185  A    between atoms: _453  and  _454
REMARK  186  A    between atoms: _453  and  _456
REMARK  187  A    between atoms: _456  and  _457
REMARK  188  A    between atoms: _463  and  _465
REMARK  189  A    between atoms: _465  and  _466
REMARK  190  A    between atoms: _470  and  _471
REMARK  191  A    between atoms: _476  and  _478
REMARK  192  A    between atoms: _478  and  _479
REMARK  193  A    between atoms: _478  and  _481
REMARK  194  A    between atoms: _481  and  _482
REMARK  195  A    between atoms: _485  and  _487
REMARK  196  A    between atoms: _487  and  _488
REMARK  197  A    between atoms: _487  and  _490
REMARK  198  A    between atoms: _490  and  _491
REMARK  199  A    between atoms: _501  and  _503
REMARK  200  A    between atoms: _503  and  _504
REMARK  201  A    between atoms: _503  and  _506
REMARK  202  A    between atoms: _508  and  _510
REMARK  203  A    between atoms: _510  and  _511
REMARK  204  A    between atoms: _510  and  _513
REMARK  205  A    between atoms: _513  and  _514
REMARK  206  A    between atoms: _514  and  _515
REMARK  207  A    between atoms: _518  and  _520
REMARK  208  A    between atoms: _520  and  _521
REMARK  209  A    between atoms: _520  and  _523
REMARK  210  A    between atoms: _523  and  _524
REMARK  211  A    between atoms: _527  and  _529
REMARK  212  A    between atoms: _529  and  _530
REMARK  213  A    between atoms: _529  and  _532
REMARK  214  A    between atoms: _532  and  _533
REMARK  215  A    between atoms: _538  and  _539
REMARK  216  A    between atoms: _541  and  _543
REMARK  217  A    between atoms: _543  and  _544
REMARK  218  A    between atoms: _546  and  _548
REMARK  219  A    between atoms: _548  and  _549
REMARK  220  A    between atoms: _552  and  _554
REMARK  221  A    between atoms: _554  and  _555
REMARK  222  A    between atoms: _554  and  _557
REMARK  223  A    between atoms: _559  and  _561
REMARK  224  A    between atoms: _561  and  _562
REMARK  225  A    between atoms: _561  and  _564
REMARK  226  A    between atoms: _564  and  _565
REMARK  227  A    between atoms: _570  and  _571
REMARK  228  A    between atoms: _573  and  _575
REMARK  229  A    between atoms: _575  and  _576
REMARK  230  A    between atoms: _575  and  _578
REMARK  231  A    between atoms: _578  and  _579
REMARK  232  A    between atoms: _584  and  _586
REMARK  233  A    between atoms: _586  and  _587
REMARK  234  A    between atoms: _586  and  _589
REMARK  235  A    between atoms: _589  and  _590
REMARK  236  A    between atoms: _596  and  _598
REMARK  237  A    between atoms: _598  and  _599
REMARK  238  A    between atoms: _602  and  _604
REMARK  239  A    between atoms: _604  and  _605
REMARK  240  A    between atoms: _607  and  _609
REMARK  241  A    between atoms: _609  and  _610
REMARK  242  A    between atoms: _609  and  _612
REMARK  243  A    between atoms: _612  and  _613
REMARK  244  A    between atoms: _618  and  _619
REMARK  245  A    between atoms: _621  and  _623
REMARK  246  A    between atoms: _623  and  _624
REMARK  247  A    between atoms: _623  and  _626
REMARK  248  A    between atoms: _626  and  _627
REMARK  249  A    between atoms: _629  and  _631
REMARK  250  A    between atoms: _631  and  _632
REMARK  251  A    between atoms: _634  and  _636
REMARK  252  A    between atoms: _636  and  _637
REMARK                            x       y       z     vdW  Elec       q    Type
REMARK                         _______ _______ _______ _____ _____    ______ ____
ROOT
ATOM      1  O   HOH     1      41.711   6.265 -16.555  0.00  0.00    +0.000 OA
ENDROOT
TORSDOF 0
REMARK  Name = ../refined-set-2016/3hkw/3hkw_pocket.pdb
REMARK  252 active torsions:
REMARK  status: ('A' for Active; 'I' for Inactive)
REMARK    1  A    between atoms: _1  and  _3
REMARK    2  A    between atoms: _3  and  _4
REMARK    3  A    between atoms: _3  and  _6
REMARK    4  A    between atoms: _6  and  _7
REMARK    5  A    between atoms: _7  and  _8
REMARK    6  A    between atoms: _8  and  _9
REMARK    7  A    between atoms: _9  and  _10
REMARK    8  A    between atoms: _14  and  _16
REMARK    9  A    between atoms: _16  and  _17
REMARK   10  A    between atoms: _16  and  _19
REMARK   11  A    between atoms: _19  and  _20
REMARK   12  A    between atoms: _20  and  _21
REMARK   13  A    between atoms: _24  and  _26
REMARK   14  A    between atoms: _26  and  _27
REMARK   15  A    between atoms: _26  and  _29
REMARK   16  A    between atoms: _29  and  _30
REMARK   17  A    between atoms: _30  and  _31
REMARK   18  A    between atoms: _31  and  _32
REMARK   19  A    between atoms: _41  and  _43
REMARK   20  A    between atoms: _43  and  _44
REMARK   21  A    between atoms: _46  and  _48
REMARK   22  A    between atoms: _48  and  _49
REMARK   23  A    between atoms: _48  and  _51
REMARK   24  A    between atoms: _51  and  _52
REMARK   25  A    between atoms: _58  and  _60
REMARK   26  A    between atoms: _60  and  _61
REMARK   27  A    between atoms: _60  and  _63
REMARK   28  A    between atoms: _63  and  _64
REMARK   29  A    between atoms: _69  and  _70
REMARK   30  A    between atoms: _72  and  _74
REMARK   31  A    between atoms: _74  and  _75
REMARK   32  A    between atoms: _74  and  _77
REMARK   33  A    between atoms: _77  and  _78
REMARK   34  A    between atoms: _81  and  _82
REMARK   35  A    between atoms: _87  and  _89
REMARK   36  A    between atoms: _89  and  _90
REMARK   37  A    between atoms: _92  and  _94
REMARK   38  A    between atoms: _94  and  _95
REMARK   39  A    between atoms: _94  and  _97
REMARK   40  A    between atoms: _97  and  _98
REMARK   41  A    between atoms: _98  and  _99
REMARK   42  A    between atoms: _104  and  _106
REMARK   43  A    between atoms: _106  and  _107
REMARK   44  A    between atoms: _106  and  _109
REMARK   45  A    between atoms: _109  and  _110
REMARK   46  A    between atoms: _110  and  _111
REMARK   47  A    between atoms: _111  and  _112
REMARK   48  A    between atoms: _121  and  _123
REMARK   49  A    between atoms: _123  and  _124
REMARK   50  A    between atoms: _123  and  _126
REMARK   51  A    between atoms: _129  and  _131
REMARK   52  A    between atoms: _131  and  _132
REMARK   53  A    between atoms: _131  and  _134
REMARK   54  A    between atoms: _134  and  _135
REMARK   55  A    between atoms: _138  and  _140
REMARK   56  A    between atoms: _140  and  _141
REMARK   57  A    between atoms: _140  and  _143
REMARK   58  A    between atoms: _143  and  _144
REMARK   59  A    between atoms: _147  and  _149
REMARK   60  A    between atoms: _149  and  _150
REMARK   61  A    between atoms: _149  and  _152
REMARK   62  A    between atoms: _152  and  _153
REMARK   63  A    between atoms: _155  and  _157
REMARK   64  A    between atoms: _157  and  _158
REMARK   65  A    between atoms: _157  and  _160
REMARK   66  A    between atoms: _160  and  _161
REMARK   67  A    between atoms: _164  and  _166
REMARK   68  A    between atoms: _166  and  _167
REMARK   69  A    between atoms: _166  and  _169
REMARK   70  A    between atoms: _169  and  _170
REMARK   71  A    between atoms: _172  and  _174
REMARK   72  A    between atoms: _174  and  _175
REMARK   73  A    between atoms: _174  and  _177
REMARK   74  A    between atoms: _177  and  _178
REMARK   75  A    between atoms: _183  and  _185
REMARK   76  A    between atoms: _185  and  _186
REMARK   77  A    between atoms: _185  and  _188
REMARK   78  A    between atoms: _188  and  _189
REMARK   79  A    between atoms: _192  and  _194
REMARK   80  A    between atoms: _194  and  _195
REMARK   81  A    between atoms: _194  and  _197
REMARK   82  A    between atoms: _199  and  _201
REMARK   83  A    between atoms: _201  and  _202
REMARK   84  A    between atoms: _204  and  _206
REMARK   85  A    between atoms: _206  and  _207
REMARK   86  A    between atoms: _206  and  _209
REMARK   87  A    between atoms: _209  and  _210
REMARK   88  A    between atoms: _213  and  _215
REMARK   89  A    between atoms: _215  and  _216
REMARK   90  A    between atoms: _215  and  _218
REMARK   91  A    between atoms: _218  and  _219
REMARK   92  A    between atoms: _222  and  _224
REMARK   93  A    between atoms: _224  and  _225
REMARK   94  A    between atoms: _224  and  _227
REMARK   95  A    between atoms: _227  and  _228
REMARK   96  A    between atoms: _230  and  _232
REMARK   97  A    between atoms: _232  and  _233
REMARK   98  A    between atoms: _232  and  _235
REMARK   99  A    between atoms: _237  and  _239
REMARK  100  A    between atoms: _239  and  _240
REMARK  101  A    between atoms: _239  and  _242
REMARK  102  A    between atoms: _242  and  _243
REMARK  103  A    between atoms: _245  and  _247
REMARK  104  A    between atoms: _247  and  _248
REMARK  105  A    between atoms: _247  and  _250
REMARK  106  A    between atoms: _250  and  _251
REMARK  107  A    between atoms: _253  and  _255
REMARK  108  A    between atoms: _255  and  _256
REMARK  109  A    between atoms: _255  and  _258
REMARK  110  A    between atoms: _258  and  _259
REMARK  111  A    between atoms: _264  and  _266
REMARK  112  A    between atoms: _266  and  _267
REMARK  113  A    between atoms: _266  and  _269
REMARK  114  A    between atoms: _269  and  _270
REMARK  115  A    between atoms: _275  and  _276
REMARK  116  A    between atoms: _278  and  _280
REMARK  117  A    between atoms: _280  and  _281
REMARK  118  A    between atoms: _280  and  _283
REMARK  119  A    between atoms: _283  and  _284
REMARK  120  A    between atoms: _287  and  _289
REMARK  121  A    between atoms: _289  and  _290
REMARK  122  A    between atoms: _289  and  _292
REMARK  123  A    between atoms: _292  and  _293
REMARK  124  A    between atoms: _296  and  _298
REMARK  125  A    between atoms: _298  and  _299
REMARK  126  A    between atoms: _298  and  _301
REMARK  127  A    between atoms: _301  and  _302
REMARK  128  A    between atoms: _302  and  _303
REMARK  129  A    between atoms: _303  and  _304
REMARK  130  A    between atoms: _313  and  _315
REMARK  131  A    between atoms: _315  and  _316
REMARK  132  A    between atoms: _315  and  _318
REMARK  133  A    between atoms: _318  and  _319
REMARK  134  A    between atoms: _323  and  _324
REMARK  135  A    between atoms: _329  and  _331
REMARK  136  A    between atoms: _331  and  _332
REMARK  137  A    between atoms: _331  and  _334
REMARK  138  A    between atoms: _334  and  _335
REMARK  139  A    between atoms: _335  and  _336
REMARK  140  A    between atoms: _336  and  _337
REMARK  141  A    between atoms: _346  and  _348
REMARK  142  A    between atoms: _348  and  _349
REMARK  143  A    between atoms: _348  and  _351
REMARK  144  A    between atoms: _351  and  _352
REMARK  145  A    between atoms: _352  and  _353
REMARK  146  A    between atoms: _356  and  _358
REMARK  147  A    between atoms: _358  and  _359
REMARK  148  A    between atoms: _358  and  _361
REMARK  149  A    between atoms: _364  and  _366
REMARK  150  A    between atoms: _366  and  _367
REMARK  151  A    between atoms: _366  and  _369
REMARK  152  A    between atoms: _369  and  _370
REMARK  153  A    between atoms: _375  and  _377
REMARK  154  A    between atoms: _377  and  _378
REMARK  155  A    between atoms: _377  and  _380
REMARK  156  A    between atoms: _380  and  _381
REMARK  157  A    between atoms: _383  and  _385
REMARK  158  A    between atoms: _385  and  _386
REMARK  159  A    between atoms: _385  and  _388
REMARK  160  A    between atoms: _388  and  _389
REMARK  161  A    between atoms: _399  and  _401
REMARK  162  A    between atoms: _401  and  _402
REMARK  163  A    between atoms: _401  and  _404
REMARK  164  A    between atoms: _404  and  _405
REMARK  165  A    between atoms: _408  and  _410
REMARK  166  A    between atoms: _410  and  _411
REMARK  167  A    between atoms: _413  and  _415
REMARK  168  A    between atoms: _415  and  _416
REMARK  169  A    between atoms: _415  and  _418
REMARK  170  A    between atoms: _418  and  _419
REMARK  171  A    between atoms: _424  and  _426
REMARK  172  A    between atoms: _426  and  _427
REMARK  173  A    between atoms: _426  and  _429
REMARK  174  A    between atoms: _429  and  _430
REMARK  175  A    between atoms: _433  and  _435
REMARK  176  A    between atoms: _435  and  _436
REMARK  177  A    between atoms: _435  and  _438
REMARK  178  A    between atoms: _438  and  _439
REMARK  179  A    between atoms: _442  and  _444
REMARK  180  A    between atoms: _444  and  _445
REMARK  181  A    between atoms: _444  and  _447
REMARK  182  A    between atoms: _447  and  _448
REMARK  183  A    between atoms: _448  and  _449
REMARK  184  A    between atoms: _451  and  _453
REMARK  185  A    between atoms: _453  and  _454
REMARK  186  A    between atoms: _453  and  _456
REMARK  187  A    between atoms: _456  and  _457
REMARK  188  A    between atoms: _463  and  _465
REMARK  189  A    between atoms: _465  and  _466
REMARK  190  A    between atoms: _470  and  _471
REMARK  191  A    between atoms: _476  and  _478
REMARK  192  A    between atoms: _478  and  _479
REMARK  193  A    between atoms: _478  and  _481
REMARK  194  A    between atoms: _481  and  _482
REMARK  195  A    between atoms: _485  and  _487
REMARK  196  A    between atoms: _487  and  _488
REMARK  197  A    between atoms: _487  and  _490
REMARK  198  A    between atoms: _490  and  _491
REMARK  199  A    between atoms: _501  and  _503
REMARK  200  A    between atoms: _503  and  _504
REMARK  201  A    between atoms: _503  and  _506
REMARK  202  A    between atoms: _508  and  _510
REMARK  203  A    between atoms: _510  and  _511
REMARK  204  A    between atoms: _510  and  _513
REMARK  205  A    between atoms: _513  and  _514
REMARK  206  A    between atoms: _514  and  _515
REMARK  207  A    between atoms: _518  and  _520
REMARK  208  A    between atoms: _520  and  _521
REMARK  209  A    between atoms: _520  and  _523
REMARK  210  A    between atoms: _523  and  _524
REMARK  211  A    between atoms: _527  and  _529
REMARK  212  A    between atoms: _529  and  _530
REMARK  213  A    between atoms: _529  and  _532
REMARK  214  A    between atoms: _532  and  _533
REMARK  215  A    between atoms: _538  and  _539
REMARK  216  A    between atoms: _541  and  _543
REMARK  217  A    between atoms: _543  and  _544
REMARK  218  A    between atoms: _546  and  _548
REMARK  219  A    between atoms: _548  and  _549
REMARK  220  A    between atoms: _552  and  _554
REMARK  221  A    between atoms: _554  and  _555
REMARK  222  A    between atoms: _554  and  _557
REMARK  223  A    between atoms: _559  and  _561
REMARK  224  A    between atoms: _561  and  _562
REMARK  225  A    between atoms: _561  and  _564
REMARK  226  A    between atoms: _564  and  _565
REMARK  227  A    between atoms: _570  and  _571
REMARK  228  A    between atoms: _573  and  _575
REMARK  229  A    between atoms: _575  and  _576
REMARK  230  A    between atoms: _575  and  _578
REMARK  231  A    between atoms: _578  and  _579
REMARK  232  A    between atoms: _584  and  _586
REMARK  233  A    between atoms: _586  and  _587
REMARK  234  A    between atoms: _586  and  _589
REMARK  235  A    between atoms: _589  and  _590
REMARK  236  A    between atoms: _596  and  _598
REMARK  237  A    between atoms: _598  and  _599
REMARK  238  A    between atoms: _602  and  _604
REMARK  239  A    between atoms: _604  and  _605
REMARK  240  A    between atoms: _607  and  _609
REMARK  241  A    between atoms: _609  and  _610
REMARK  242  A    between atoms: _609  and  _612
REMARK  243  A    between atoms: _612  and  _613
REMARK  244  A    between atoms: _618  and  _619
REMARK  245  A    between atoms: _621  and  _623
REMARK  246  A    between atoms: _623  and  _624
REMARK  247  A    between atoms: _623  and  _626
REMARK  248  A    between atoms: _626  and  _627
REMARK  249  A    between atoms: _629  and  _631
REMARK  250  A    between atoms: _631  and  _632
REMARK  251  A    between atoms: _634  and  _636
REMARK  252  A    between atoms: _636  and  _637
REMARK                            x       y       z     vdW  Elec       q    Type
REMARK                         _______ _______ _______ _____ _____    ______ ____
ROOT
ATOM      1  O   HOH     1      36.890  -4.054 -16.834  0.00  0.00    +0.000 OA
ENDROOT
TORSDOF 0
REMARK  Name = ../refined-set-2016/3hkw/3hkw_pocket.pdb
REMARK  252 active torsions:
REMARK  status: ('A' for Active; 'I' for Inactive)
REMARK    1  A    between atoms: _1  and  _3
REMARK    2  A    between atoms: _3  and  _4
REMARK    3  A    between atoms: _3  and  _6
REMARK    4  A    between atoms: _6  and  _7
REMARK    5  A    between atoms: _7  and  _8
REMARK    6  A    between atoms: _8  and  _9
REMARK    7  A    between atoms: _9  and  _10
REMARK    8  A    between atoms: _14  and  _16
REMARK    9  A    between atoms: _16  and  _17
REMARK   10  A    between atoms: _16  and  _19
REMARK   11  A    between atoms: _19  and  _20
REMARK   12  A    between atoms: _20  and  _21
REMARK   13  A    between atoms: _24  and  _26
REMARK   14  A    between atoms: _26  and  _27
REMARK   15  A    between atoms: _26  and  _29
REMARK   16  A    between atoms: _29  and  _30
REMARK   17  A    between atoms: _30  and  _31
REMARK   18  A    between atoms: _31  and  _32
REMARK   19  A    between atoms: _41  and  _43
REMARK   20  A    between atoms: _43  and  _44
REMARK   21  A    between atoms: _46  and  _48
REMARK   22  A    between atoms: _48  and  _49
REMARK   23  A    between atoms: _48  and  _51
REMARK   24  A    between atoms: _51  and  _52
REMARK   25  A    between atoms: _58  and  _60
REMARK   26  A    between atoms: _60  and  _61
REMARK   27  A    between atoms: _60  and  _63
REMARK   28  A    between atoms: _63  and  _64
REMARK   29  A    between atoms: _69  and  _70
REMARK   30  A    between atoms: _72  and  _74
REMARK   31  A    between atoms: _74  and  _75
REMARK   32  A    between atoms: _74  and  _77
REMARK   33  A    between atoms: _77  and  _78
REMARK   34  A    between atoms: _81  and  _82
REMARK   35  A    between atoms: _87  and  _89
REMARK   36  A    between atoms: _89  and  _90
REMARK   37  A    between atoms: _92  and  _94
REMARK   38  A    between atoms: _94  and  _95
REMARK   39  A    between atoms: _94  and  _97
REMARK   40  A    between atoms: _97  and  _98
REMARK   41  A    between atoms: _98  and  _99
REMARK   42  A    between atoms: _104  and  _106
REMARK   43  A    between atoms: _106  and  _107
REMARK   44  A    between atoms: _106  and  _109
REMARK   45  A    between atoms: _109  and  _110
REMARK   46  A    between atoms: _110  and  _111
REMARK   47  A    between atoms: _111  and  _112
REMARK   48  A    between atoms: _121  and  _123
REMARK   49  A    between atoms: _123  and  _124
REMARK   50  A    between atoms: _123  and  _126
REMARK   51  A    between atoms: _129  and  _131
REMARK   52  A    between atoms: _131  and  _132
REMARK   53  A    between atoms: _131  and  _134
REMARK   54  A    between atoms: _134  and  _135
REMARK   55  A    between atoms: _138  and  _140
REMARK   56  A    between atoms: _140  and  _141
REMARK   57  A    between atoms: _140  and  _143
REMARK   58  A    between atoms: _143  and  _144
REMARK   59  A    between atoms: _147  and  _149
REMARK   60  A    between atoms: _149  and  _150
REMARK   61  A    between atoms: _149  and  _152
REMARK   62  A    between atoms: _152  and  _153
REMARK   63  A    between atoms: _155  and  _157
REMARK   64  A    between atoms: _157  and  _158
REMARK   65  A    between atoms: _157  and  _160
REMARK   66  A    between atoms: _160  and  _161
REMARK   67  A    between atoms: _164  and  _166
REMARK   68  A    between atoms: _166  and  _167
REMARK   69  A    between atoms: _166  and  _169
REMARK   70  A    between atoms: _169  and  _170
REMARK   71  A    between atoms: _172  and  _174
REMARK   72  A    between atoms: _174  and  _175
REMARK   73  A    between atoms: _174  and  _177
REMARK   74  A    between atoms: _177  and  _178
REMARK   75  A    between atoms: _183  and  _185
REMARK   76  A    between atoms: _185  and  _186
REMARK   77  A    between atoms: _185  and  _188
REMARK   78  A    between atoms: _188  and  _189
REMARK   79  A    between atoms: _192  and  _194
REMARK   80  A    between atoms: _194  and  _195
REMARK   81  A    between atoms: _194  and  _197
REMARK   82  A    between atoms: _199  and  _201
REMARK   83  A    between atoms: _201  and  _202
REMARK   84  A    between atoms: _204  and  _206
REMARK   85  A    between atoms: _206  and  _207
REMARK   86  A    between atoms: _206  and  _209
REMARK   87  A    between atoms: _209  and  _210
REMARK   88  A    between atoms: _213  and  _215
REMARK   89  A    between atoms: _215  and  _216
REMARK   90  A    between atoms: _215  and  _218
REMARK   91  A    between atoms: _218  and  _219
REMARK   92  A    between atoms: _222  and  _224
REMARK   93  A    between atoms: _224  and  _225
REMARK   94  A    between atoms: _224  and  _227
REMARK   95  A    between atoms: _227  and  _228
REMARK   96  A    between atoms: _230  and  _232
REMARK   97  A    between atoms: _232  and  _233
REMARK   98  A    between atoms: _232  and  _235
REMARK   99  A    between atoms: _237  and  _239
REMARK  100  A    between atoms: _239  and  _240
REMARK  101  A    between atoms: _239  and  _242
REMARK  102  A    between atoms: _242  and  _243
REMARK  103  A    between atoms: _245  and  _247
REMARK  104  A    between atoms: _247  and  _248
REMARK  105  A    between atoms: _247  and  _250
REMARK  106  A    between atoms: _250  and  _251
REMARK  107  A    between atoms: _253  and  _255
REMARK  108  A    between atoms: _255  and  _256
REMARK  109  A    between atoms: _255  and  _258
REMARK  110  A    between atoms: _258  and  _259
REMARK  111  A    between atoms: _264  and  _266
REMARK  112  A    between atoms: _266  and  _267
REMARK  113  A    between atoms: _266  and  _269
REMARK  114  A    between atoms: _269  and  _270
REMARK  115  A    between atoms: _275  and  _276
REMARK  116  A    between atoms: _278  and  _280
REMARK  117  A    between atoms: _280  and  _281
REMARK  118  A    between atoms: _280  and  _283
REMARK  119  A    between atoms: _283  and  _284
REMARK  120  A    between atoms: _287  and  _289
REMARK  121  A    between atoms: _289  and  _290
REMARK  122  A    between atoms: _289  and  _292
REMARK  123  A    between atoms: _292  and  _293
REMARK  124  A    between atoms: _296  and  _298
REMARK  125  A    between atoms: _298  and  _299
REMARK  126  A    between atoms: _298  and  _301
REMARK  127  A    between atoms: _301  and  _302
REMARK  128  A    between atoms: _302  and  _303
REMARK  129  A    between atoms: _303  and  _304
REMARK  130  A    between atoms: _313  and  _315
REMARK  131  A    between atoms: _315  and  _316
REMARK  132  A    between atoms: _315  and  _318
REMARK  133  A    between atoms: _318  and  _319
REMARK  134  A    between atoms: _323  and  _324
REMARK  135  A    between atoms: _329  and  _331
REMARK  136  A    between atoms: _331  and  _332
REMARK  137  A    between atoms: _331  and  _334
REMARK  138  A    between atoms: _334  and  _335
REMARK  139  A    between atoms: _335  and  _336
REMARK  140  A    between atoms: _336  and  _337
REMARK  141  A    between atoms: _346  and  _348
REMARK  142  A    between atoms: _348  and  _349
REMARK  143  A    between atoms: _348  and  _351
REMARK  144  A    between atoms: _351  and  _352
REMARK  145  A    between atoms: _352  and  _353
REMARK  146  A    between atoms: _356  and  _358
REMARK  147  A    between atoms: _358  and  _359
REMARK  148  A    between atoms: _358  and  _361
REMARK  149  A    between atoms: _364  and  _366
REMARK  150  A    between atoms: _366  and  _367
REMARK  151  A    between atoms: _366  and  _369
REMARK  152  A    between atoms: _369  and  _370
REMARK  153  A    between atoms: _375  and  _377
REMARK  154  A    between atoms: _377  and  _378
REMARK  155  A    between atoms: _377  and  _380
REMARK  156  A    between atoms: _380  and  _381
REMARK  157  A    between atoms: _383  and  _385
REMARK  158  A    between atoms: _385  and  _386
REMARK  159  A    between atoms: _385  and  _388
REMARK  160  A    between atoms: _388  and  _389
REMARK  161  A    between atoms: _399  and  _401
REMARK  162  A    between atoms: _401  and  _402
REMARK  163  A    between atoms: _401  and  _404
REMARK  164  A    between atoms: _404  and  _405
REMARK  165  A    between atoms: _408  and  _410
REMARK  166  A    between atoms: _410  and  _411
REMARK  167  A    between atoms: _413  and  _415
REMARK  168  A    between atoms: _415  and  _416
REMARK  169  A    between atoms: _415  and  _418
REMARK  170  A    between atoms: _418  and  _419
REMARK  171  A    between atoms: _424  and  _426
REMARK  172  A    between atoms: _426  and  _427
REMARK  173  A    between atoms: _426  and  _429
REMARK  174  A    between atoms: _429  and  _430
REMARK  175  A    between atoms: _433  and  _435
REMARK  176  A    between atoms: _435  and  _436
REMARK  177  A    between atoms: _435  and  _438
REMARK  178  A    between atoms: _438  and  _439
REMARK  179  A    between atoms: _442  and  _444
REMARK  180  A    between atoms: _444  and  _445
REMARK  181  A    between atoms: _444  and  _447
REMARK  182  A    between atoms: _447  and  _448
REMARK  183  A    between atoms: _448  and  _449
REMARK  184  A    between atoms: _451  and  _453
REMARK  185  A    between atoms: _453  and  _454
REMARK  186  A    between atoms: _453  and  _456
REMARK  187  A    between atoms: _456  and  _457
REMARK  188  A    between atoms: _463  and  _465
REMARK  189  A    between atoms: _465  and  _466
REMARK  190  A    between atoms: _470  and  _471
REMARK  191  A    between atoms: _476  and  _478
REMARK  192  A    between atoms: _478  and  _479
REMARK  193  A    between atoms: _478  and  _481
REMARK  194  A    between atoms: _481  and  _482
REMARK  195  A    between atoms: _485  and  _487
REMARK  196  A    between atoms: _487  and  _488
REMARK  197  A    between atoms: _487  and  _490
REMARK  198  A    between atoms: _490  and  _491
REMARK  199  A    between atoms: _501  and  _503
REMARK  200  A    between atoms: _503  and  _504
REMARK  201  A    between atoms: _503  and  _506
REMARK  202  A    between atoms: _508  and  _510
REMARK  203  A    between atoms: _510  and  _511
REMARK  204  A    between atoms: _510  and  _513
REMARK  205  A    between atoms: _513  and  _514
REMARK  206  A    between atoms: _514  and  _515
REMARK  207  A    between atoms: _518  and  _520
REMARK  208  A    between atoms: _520  and  _521
REMARK  209  A    between atoms: _520  and  _523
REMARK  210  A    between atoms: _523  and  _524
REMARK  211  A    between atoms: _527  and  _529
REMARK  212  A    between atoms: _529  and  _530
REMARK  213  A    between atoms: _529  and  _532
REMARK  214  A    between atoms: _532  and  _533
REMARK  215  A    between atoms: _538  and  _539
REMARK  216  A    between atoms: _541  and  _543
REMARK  217  A    between atoms: _543  and  _544
REMARK  218  A    between atoms: _546  and  _548
REMARK  219  A    between atoms: _548  and  _549
REMARK  220  A    between atoms: _552  and  _554
REMARK  221  A    between atoms: _554  and  _555
REMARK  222  A    between atoms: _554  and  _557
REMARK  223  A    between atoms: _559  and  _561
REMARK  224  A    between atoms: _561  and  _562
REMARK  225  A    between atoms: _561  and  _564
REMARK  226  A    between atoms: _564  and  _565
REMARK  227  A    between atoms: _570  and  _571
REMARK  228  A    between atoms: _573  and  _575
REMARK  229  A    between atoms: _575  and  _576
REMARK  230  A    between atoms: _575  and  _578
REMARK  231  A    between atoms: _578  and  _579
REMARK  232  A    between atoms: _584  and  _586
REMARK  233  A    between atoms: _586  and  _587
REMARK  234  A    between atoms: _586  and  _589
REMARK  235  A    between atoms: _589  and  _590
REMARK  236  A    between atoms: _596  and  _598
REMARK  237  A    between atoms: _598  and  _599
REMARK  238  A    between atoms: _602  and  _604
REMARK  239  A    between atoms: _604  and  _605
REMARK  240  A    between atoms: _607  and  _609
REMARK  241  A    between atoms: _609  and  _610
REMARK  242  A    between atoms: _609  and  _612
REMARK  243  A    between atoms: _612  and  _613
REMARK  244  A    between atoms: _618  and  _619
REMARK  245  A    between atoms: _621  and  _623
REMARK  246  A    between atoms: _623  and  _624
REMARK  247  A    between atoms: _623  and  _626
REMARK  248  A    between atoms: _626  and  _627
REMARK  249  A    between atoms: _629  and  _631
REMARK  250  A    between atoms: _631  and  _632
REMARK  251  A    between atoms: _634  and  _636
REMARK  252  A    between atoms: _636  and  _637
REMARK                            x       y       z     vdW  Elec       q    Type
REMARK                         _______ _______ _______ _____ _____    ______ ____
ROOT
ATOM      1  O   HOH     1      47.433   2.155 -12.654  0.00  0.00    +0.000 OA
ENDROOT
TORSDOF 0
REMARK  Name = ../refined-set-2016/3hkw/3hkw_pocket.pdb
REMARK  252 active torsions:
REMARK  status: ('A' for Active; 'I' for Inactive)
REMARK    1  A    between atoms: _1  and  _3
REMARK    2  A    between atoms: _3  and  _4
REMARK    3  A    between atoms: _3  and  _6
REMARK    4  A    between atoms: _6  and  _7
REMARK    5  A    between atoms: _7  and  _8
REMARK    6  A    between atoms: _8  and  _9
REMARK    7  A    between atoms: _9  and  _10
REMARK    8  A    between atoms: _14  and  _16
REMARK    9  A    between atoms: _16  and  _17
REMARK   10  A    between atoms: _16  and  _19
REMARK   11  A    between atoms: _19  and  _20
REMARK   12  A    between atoms: _20  and  _21
REMARK   13  A    between atoms: _24  and  _26
REMARK   14  A    between atoms: _26  and  _27
REMARK   15  A    between atoms: _26  and  _29
REMARK   16  A    between atoms: _29  and  _30
REMARK   17  A    between atoms: _30  and  _31
REMARK   18  A    between atoms: _31  and  _32
REMARK   19  A    between atoms: _41  and  _43
REMARK   20  A    between atoms: _43  and  _44
REMARK   21  A    between atoms: _46  and  _48
REMARK   22  A    between atoms: _48  and  _49
REMARK   23  A    between atoms: _48  and  _51
REMARK   24  A    between atoms: _51  and  _52
REMARK   25  A    between atoms: _58  and  _60
REMARK   26  A    between atoms: _60  and  _61
REMARK   27  A    between atoms: _60  and  _63
REMARK   28  A    between atoms: _63  and  _64
REMARK   29  A    between atoms: _69  and  _70
REMARK   30  A    between atoms: _72  and  _74
REMARK   31  A    between atoms: _74  and  _75
REMARK   32  A    between atoms: _74  and  _77
REMARK   33  A    between atoms: _77  and  _78
REMARK   34  A    between atoms: _81  and  _82
REMARK   35  A    between atoms: _87  and  _89
REMARK   36  A    between atoms: _89  and  _90
REMARK   37  A    between atoms: _92  and  _94
REMARK   38  A    between atoms: _94  and  _95
REMARK   39  A    between atoms: _94  and  _97
REMARK   40  A    between atoms: _97  and  _98
REMARK   41  A    between atoms: _98  and  _99
REMARK   42  A    between atoms: _104  and  _106
REMARK   43  A    between atoms: _106  and  _107
REMARK   44  A    between atoms: _106  and  _109
REMARK   45  A    between atoms: _109  and  _110
REMARK   46  A    between atoms: _110  and  _111
REMARK   47  A    between atoms: _111  and  _112
REMARK   48  A    between atoms: _121  and  _123
REMARK   49  A    between atoms: _123  and  _124
REMARK   50  A    between atoms: _123  and  _126
REMARK   51  A    between atoms: _129  and  _131
REMARK   52  A    between atoms: _131  and  _132
REMARK   53  A    between atoms: _131  and  _134
REMARK   54  A    between atoms: _134  and  _135
REMARK   55  A    between atoms: _138  and  _140
REMARK   56  A    between atoms: _140  and  _141
REMARK   57  A    between atoms: _140  and  _143
REMARK   58  A    between atoms: _143  and  _144
REMARK   59  A    between atoms: _147  and  _149
REMARK   60  A    between atoms: _149  and  _150
REMARK   61  A    between atoms: _149  and  _152
REMARK   62  A    between atoms: _152  and  _153
REMARK   63  A    between atoms: _155  and  _157
REMARK   64  A    between atoms: _157  and  _158
REMARK   65  A    between atoms: _157  and  _160
REMARK   66  A    between atoms: _160  and  _161
REMARK   67  A    between atoms: _164  and  _166
REMARK   68  A    between atoms: _166  and  _167
REMARK   69  A    between atoms: _166  and  _169
REMARK   70  A    between atoms: _169  and  _170
REMARK   71  A    between atoms: _172  and  _174
REMARK   72  A    between atoms: _174  and  _175
REMARK   73  A    between atoms: _174  and  _177
REMARK   74  A    between atoms: _177  and  _178
REMARK   75  A    between atoms: _183  and  _185
REMARK   76  A    between atoms: _185  and  _186
REMARK   77  A    between atoms: _185  and  _188
REMARK   78  A    between atoms: _188  and  _189
REMARK   79  A    between atoms: _192  and  _194
REMARK   80  A    between atoms: _194  and  _195
REMARK   81  A    between atoms: _194  and  _197
REMARK   82  A    between atoms: _199  and  _201
REMARK   83  A    between atoms: _201  and  _202
REMARK   84  A    between atoms: _204  and  _206
REMARK   85  A    between atoms: _206  and  _207
REMARK   86  A    between atoms: _206  and  _209
REMARK   87  A    between atoms: _209  and  _210
REMARK   88  A    between atoms: _213  and  _215
REMARK   89  A    between atoms: _215  and  _216
REMARK   90  A    between atoms: _215  and  _218
REMARK   91  A    between atoms: _218  and  _219
REMARK   92  A    between atoms: _222  and  _224
REMARK   93  A    between atoms: _224  and  _225
REMARK   94  A    between atoms: _224  and  _227
REMARK   95  A    between atoms: _227  and  _228
REMARK   96  A    between atoms: _230  and  _232
REMARK   97  A    between atoms: _232  and  _233
REMARK   98  A    between atoms: _232  and  _235
REMARK   99  A    between atoms: _237  and  _239
REMARK  100  A    between atoms: _239  and  _240
REMARK  101  A    between atoms: _239  and  _242
REMARK  102  A    between atoms: _242  and  _243
REMARK  103  A    between atoms: _245  and  _247
REMARK  104  A    between atoms: _247  and  _248
REMARK  105  A    between atoms: _247  and  _250
REMARK  106  A    between atoms: _250  and  _251
REMARK  107  A    between atoms: _253  and  _255
REMARK  108  A    between atoms: _255  and  _256
REMARK  109  A    between atoms: _255  and  _258
REMARK  110  A    between atoms: _258  and  _259
REMARK  111  A    between atoms: _264  and  _266
REMARK  112  A    between atoms: _266  and  _267
REMARK  113  A    between atoms: _266  and  _269
REMARK  114  A    between atoms: _269  and  _270
REMARK  115  A    between atoms: _275  and  _276
REMARK  116  A    between atoms: _278  and  _280
REMARK  117  A    between atoms: _280  and  _281
REMARK  118  A    between atoms: _280  and  _283
REMARK  119  A    between atoms: _283  and  _284
REMARK  120  A    between atoms: _287  and  _289
REMARK  121  A    between atoms: _289  and  _290
REMARK  122  A    between atoms: _289  and  _292
REMARK  123  A    between atoms: _292  and  _293
REMARK  124  A    between atoms: _296  and  _298
REMARK  125  A    between atoms: _298  and  _299
REMARK  126  A    between atoms: _298  and  _301
REMARK  127  A    between atoms: _301  and  _302
REMARK  128  A    between atoms: _302  and  _303
REMARK  129  A    between atoms: _303  and  _304
REMARK  130  A    between atoms: _313  and  _315
REMARK  131  A    between atoms: _315  and  _316
REMARK  132  A    between atoms: _315  and  _318
REMARK  133  A    between atoms: _318  and  _319
REMARK  134  A    between atoms: _323  and  _324
REMARK  135  A    between atoms: _329  and  _331
REMARK  136  A    between atoms: _331  and  _332
REMARK  137  A    between atoms: _331  and  _334
REMARK  138  A    between atoms: _334  and  _335
REMARK  139  A    between atoms: _335  and  _336
REMARK  140  A    between atoms: _336  and  _337
REMARK  141  A    between atoms: _346  and  _348
REMARK  142  A    between atoms: _348  and  _349
REMARK  143  A    between atoms: _348  and  _351
REMARK  144  A    between atoms: _351  and  _352
REMARK  145  A    between atoms: _352  and  _353
REMARK  146  A    between atoms: _356  and  _358
REMARK  147  A    between atoms: _358  and  _359
REMARK  148  A    between atoms: _358  and  _361
REMARK  149  A    between atoms: _364  and  _366
REMARK  150  A    between atoms: _366  and  _367
REMARK  151  A    between atoms: _366  and  _369
REMARK  152  A    between atoms: _369  and  _370
REMARK  153  A    between atoms: _375  and  _377
REMARK  154  A    between atoms: _377  and  _378
REMARK  155  A    between atoms: _377  and  _380
REMARK  156  A    between atoms: _380  and  _381
REMARK  157  A    between atoms: _383  and  _385
REMARK  158  A    between atoms: _385  and  _386
REMARK  159  A    between atoms: _385  and  _388
REMARK  160  A    between atoms: _388  and  _389
REMARK  161  A    between atoms: _399  and  _401
REMARK  162  A    between atoms: _401  and  _402
REMARK  163  A    between atoms: _401  and  _404
REMARK  164  A    between atoms: _404  and  _405
REMARK  165  A    between atoms: _408  and  _410
REMARK  166  A    between atoms: _410  and  _411
REMARK  167  A    between atoms: _413  and  _415
REMARK  168  A    between atoms: _415  and  _416
REMARK  169  A    between atoms: _415  and  _418
REMARK  170  A    between atoms: _418  and  _419
REMARK  171  A    between atoms: _424  and  _426
REMARK  172  A    between atoms: _426  and  _427
REMARK  173  A    between atoms: _426  and  _429
REMARK  174  A    between atoms: _429  and  _430
REMARK  175  A    between atoms: _433  and  _435
REMARK  176  A    between atoms: _435  and  _436
REMARK  177  A    between atoms: _435  and  _438
REMARK  178  A    between atoms: _438  and  _439
REMARK  179  A    between atoms: _442  and  _444
REMARK  180  A    between atoms: _444  and  _445
REMARK  181  A    between atoms: _444  and  _447
REMARK  182  A    between atoms: _447  and  _448
REMARK  183  A    between atoms: _448  and  _449
REMARK  184  A    between atoms: _451  and  _453
REMARK  185  A    between atoms: _453  and  _454
REMARK  186  A    between atoms: _453  and  _456
REMARK  187  A    between atoms: _456  and  _457
REMARK  188  A    between atoms: _463  and  _465
REMARK  189  A    between atoms: _465  and  _466
REMARK  190  A    between atoms: _470  and  _471
REMARK  191  A    between atoms: _476  and  _478
REMARK  192  A    between atoms: _478  and  _479
REMARK  193  A    between atoms: _478  and  _481
REMARK  194  A    between atoms: _481  and  _482
REMARK  195  A    between atoms: _485  and  _487
REMARK  196  A    between atoms: _487  and  _488
REMARK  197  A    between atoms: _487  and  _490
REMARK  198  A    between atoms: _490  and  _491
REMARK  199  A    between atoms: _501  and  _503
REMARK  200  A    between atoms: _503  and  _504
REMARK  201  A    between atoms: _503  and  _506
REMARK  202  A    between atoms: _508  and  _510
REMARK  203  A    between atoms: _510  and  _511
REMARK  204  A    between atoms: _510  and  _513
REMARK  205  A    between atoms: _513  and  _514
REMARK  206  A    between atoms: _514  and  _515
REMARK  207  A    between atoms: _518  and  _520
REMARK  208  A    between atoms: _520  and  _521
REMARK  209  A    between atoms: _520  and  _523
REMARK  210  A    between atoms: _523  and  _524
REMARK  211  A    between atoms: _527  and  _529
REMARK  212  A    between atoms: _529  and  _530
REMARK  213  A    between atoms: _529  and  _532
REMARK  214  A    between atoms: _532  and  _533
REMARK  215  A    between atoms: _538  and  _539
REMARK  216  A    between atoms: _541  and  _543
REMARK  217  A    between atoms: _543  and  _544
REMARK  218  A    between atoms: _546  and  _548
REMARK  219  A    between atoms: _548  and  _549
REMARK  220  A    between atoms: _552  and  _554
REMARK  221  A    between atoms: _554  and  _555
REMARK  222  A    between atoms: _554  and  _557
REMARK  223  A    between atoms: _559  and  _561
REMARK  224  A    between atoms: _561  and  _562
REMARK  225  A    between atoms: _561  and  _564
REMARK  226  A    between atoms: _564  and  _565
REMARK  227  A    between atoms: _570  and  _571
REMARK  228  A    between atoms: _573  and  _575
REMARK  229  A    between atoms: _575  and  _576
REMARK  230  A    between atoms: _575  and  _578
REMARK  231  A    between atoms: _578  and  _579
REMARK  232  A    between atoms: _584  and  _586
REMARK  233  A    between atoms: _586  and  _587
REMARK  234  A    between atoms: _586  and  _589
REMARK  235  A    between atoms: _589  and  _590
REMARK  236  A    between atoms: _596  and  _598
REMARK  237  A    between atoms: _598  and  _599
REMARK  238  A    between atoms: _602  and  _604
REMARK  239  A    between atoms: _604  and  _605
REMARK  240  A    between atoms: _607  and  _609
REMARK  241  A    between atoms: _609  and  _610
REMARK  242  A    between atoms: _609  and  _612
REMARK  243  A    between atoms: _612  and  _613
REMARK  244  A    between atoms: _618  and  _619
REMARK  245  A    between atoms: _621  and  _623
REMARK  246  A    between atoms: _623  and  _624
REMARK  247  A    between atoms: _623  and  _626
REMARK  248  A    between atoms: _626  and  _627
REMARK  249  A    between atoms: _629  and  _631
REMARK  250  A    between atoms: _631  and  _632
REMARK  251  A    between atoms: _634  and  _636
REMARK  252  A    between atoms: _636  and  _637
REMARK                            x       y       z     vdW  Elec       q    Type
REMARK                         _______ _______ _______ _____ _____    ______ ____
ROOT
ATOM      1  O   HOH     1      42.309  -3.222 -15.341  0.00  0.00    +0.000 OA
ENDROOT
TORSDOF 0
REMARK  Name = ../refined-set-2016/3hkw/3hkw_pocket.pdb
REMARK  252 active torsions:
REMARK  status: ('A' for Active; 'I' for Inactive)
REMARK    1  A    between atoms: _1  and  _3
REMARK    2  A    between atoms: _3  and  _4
REMARK    3  A    between atoms: _3  and  _6
REMARK    4  A    between atoms: _6  and  _7
REMARK    5  A    between atoms: _7  and  _8
REMARK    6  A    between atoms: _8  and  _9
REMARK    7  A    between atoms: _9  and  _10
REMARK    8  A    between atoms: _14  and  _16
REMARK    9  A    between atoms: _16  and  _17
REMARK   10  A    between atoms: _16  and  _19
REMARK   11  A    between atoms: _19  and  _20
REMARK   12  A    between atoms: _20  and  _21
REMARK   13  A    between atoms: _24  and  _26
REMARK   14  A    between atoms: _26  and  _27
REMARK   15  A    between atoms: _26  and  _29
REMARK   16  A    between atoms: _29  and  _30
REMARK   17  A    between atoms: _30  and  _31
REMARK   18  A    between atoms: _31  and  _32
REMARK   19  A    between atoms: _41  and  _43
REMARK   20  A    between atoms: _43  and  _44
REMARK   21  A    between atoms: _46  and  _48
REMARK   22  A    between atoms: _48  and  _49
REMARK   23  A    between atoms: _48  and  _51
REMARK   24  A    between atoms: _51  and  _52
REMARK   25  A    between atoms: _58  and  _60
REMARK   26  A    between atoms: _60  and  _61
REMARK   27  A    between atoms: _60  and  _63
REMARK   28  A    between atoms: _63  and  _64
REMARK   29  A    between atoms: _69  and  _70
REMARK   30  A    between atoms: _72  and  _74
REMARK   31  A    between atoms: _74  and  _75
REMARK   32  A    between atoms: _74  and  _77
REMARK   33  A    between atoms: _77  and  _78
REMARK   34  A    between atoms: _81  and  _82
REMARK   35  A    between atoms: _87  and  _89
REMARK   36  A    between atoms: _89  and  _90
REMARK   37  A    between atoms: _92  and  _94
REMARK   38  A    between atoms: _94  and  _95
REMARK   39  A    between atoms: _94  and  _97
REMARK   40  A    between atoms: _97  and  _98
REMARK   41  A    between atoms: _98  and  _99
REMARK   42  A    between atoms: _104  and  _106
REMARK   43  A    between atoms: _106  and  _107
REMARK   44  A    between atoms: _106  and  _109
REMARK   45  A    between atoms: _109  and  _110
REMARK   46  A    between atoms: _110  and  _111
REMARK   47  A    between atoms: _111  and  _112
REMARK   48  A    between atoms: _121  and  _123
REMARK   49  A    between atoms: _123  and  _124
REMARK   50  A    between atoms: _123  and  _126
REMARK   51  A    between atoms: _129  and  _131
REMARK   52  A    between atoms: _131  and  _132
REMARK   53  A    between atoms: _131  and  _134
REMARK   54  A    between atoms: _134  and  _135
REMARK   55  A    between atoms: _138  and  _140
REMARK   56  A    between atoms: _140  and  _141
REMARK   57  A    between atoms: _140  and  _143
REMARK   58  A    between atoms: _143  and  _144
REMARK   59  A    between atoms: _147  and  _149
REMARK   60  A    between atoms: _149  and  _150
REMARK   61  A    between atoms: _149  and  _152
REMARK   62  A    between atoms: _152  and  _153
REMARK   63  A    between atoms: _155  and  _157
REMARK   64  A    between atoms: _157  and  _158
REMARK   65  A    between atoms: _157  and  _160
REMARK   66  A    between atoms: _160  and  _161
REMARK   67  A    between atoms: _164  and  _166
REMARK   68  A    between atoms: _166  and  _167
REMARK   69  A    between atoms: _166  and  _169
REMARK   70  A    between atoms: _169  and  _170
REMARK   71  A    between atoms: _172  and  _174
REMARK   72  A    between atoms: _174  and  _175
REMARK   73  A    between atoms: _174  and  _177
REMARK   74  A    between atoms: _177  and  _178
REMARK   75  A    between atoms: _183  and  _185
REMARK   76  A    between atoms: _185  and  _186
REMARK   77  A    between atoms: _185  and  _188
REMARK   78  A    between atoms: _188  and  _189
REMARK   79  A    between atoms: _192  and  _194
REMARK   80  A    between atoms: _194  and  _195
REMARK   81  A    between atoms: _194  and  _197
REMARK   82  A    between atoms: _199  and  _201
REMARK   83  A    between atoms: _201  and  _202
REMARK   84  A    between atoms: _204  and  _206
REMARK   85  A    between atoms: _206  and  _207
REMARK   86  A    between atoms: _206  and  _209
REMARK   87  A    between atoms: _209  and  _210
REMARK   88  A    between atoms: _213  and  _215
REMARK   89  A    between atoms: _215  and  _216
REMARK   90  A    between atoms: _215  and  _218
REMARK   91  A    between atoms: _218  and  _219
REMARK   92  A    between atoms: _222  and  _224
REMARK   93  A    between atoms: _224  and  _225
REMARK   94  A    between atoms: _224  and  _227
REMARK   95  A    between atoms: _227  and  _228
REMARK   96  A    between atoms: _230  and  _232
REMARK   97  A    between atoms: _232  and  _233
REMARK   98  A    between atoms: _232  and  _235
REMARK   99  A    between atoms: _237  and  _239
REMARK  100  A    between atoms: _239  and  _240
REMARK  101  A    between atoms: _239  and  _242
REMARK  102  A    between atoms: _242  and  _243
REMARK  103  A    between atoms: _245  and  _247
REMARK  104  A    between atoms: _247  and  _248
REMARK  105  A    between atoms: _247  and  _250
REMARK  106  A    between atoms: _250  and  _251
REMARK  107  A    between atoms: _253  and  _255
REMARK  108  A    between atoms: _255  and  _256
REMARK  109  A    between atoms: _255  and  _258
REMARK  110  A    between atoms: _258  and  _259
REMARK  111  A    between atoms: _264  and  _266
REMARK  112  A    between atoms: _266  and  _267
REMARK  113  A    between atoms: _266  and  _269
REMARK  114  A    between atoms: _269  and  _270
REMARK  115  A    between atoms: _275  and  _276
REMARK  116  A    between atoms: _278  and  _280
REMARK  117  A    between atoms: _280  and  _281
REMARK  118  A    between atoms: _280  and  _283
REMARK  119  A    between atoms: _283  and  _284
REMARK  120  A    between atoms: _287  and  _289
REMARK  121  A    between atoms: _289  and  _290
REMARK  122  A    between atoms: _289  and  _292
REMARK  123  A    between atoms: _292  and  _293
REMARK  124  A    between atoms: _296  and  _298
REMARK  125  A    between atoms: _298  and  _299
REMARK  126  A    between atoms: _298  and  _301
REMARK  127  A    between atoms: _301  and  _302
REMARK  128  A    between atoms: _302  and  _303
REMARK  129  A    between atoms: _303  and  _304
REMARK  130  A    between atoms: _313  and  _315
REMARK  131  A    between atoms: _315  and  _316
REMARK  132  A    between atoms: _315  and  _318
REMARK  133  A    between atoms: _318  and  _319
REMARK  134  A    between atoms: _323  and  _324
REMARK  135  A    between atoms: _329  and  _331
REMARK  136  A    between atoms: _331  and  _332
REMARK  137  A    between atoms: _331  and  _334
REMARK  138  A    between atoms: _334  and  _335
REMARK  139  A    between atoms: _335  and  _336
REMARK  140  A    between atoms: _336  and  _337
REMARK  141  A    between atoms: _346  and  _348
REMARK  142  A    between atoms: _348  and  _349
REMARK  143  A    between atoms: _348  and  _351
REMARK  144  A    between atoms: _351  and  _352
REMARK  145  A    between atoms: _352  and  _353
REMARK  146  A    between atoms: _356  and  _358
REMARK  147  A    between atoms: _358  and  _359
REMARK  148  A    between atoms: _358  and  _361
REMARK  149  A    between atoms: _364  and  _366
REMARK  150  A    between atoms: _366  and  _367
REMARK  151  A    between atoms: _366  and  _369
REMARK  152  A    between atoms: _369  and  _370
REMARK  153  A    between atoms: _375  and  _377
REMARK  154  A    between atoms: _377  and  _378
REMARK  155  A    between atoms: _377  and  _380
REMARK  156  A    between atoms: _380  and  _381
REMARK  157  A    between atoms: _383  and  _385
REMARK  158  A    between atoms: _385  and  _386
REMARK  159  A    between atoms: _385  and  _388
REMARK  160  A    between atoms: _388  and  _389
REMARK  161  A    between atoms: _399  and  _401
REMARK  162  A    between atoms: _401  and  _402
REMARK  163  A    between atoms: _401  and  _404
REMARK  164  A    between atoms: _404  and  _405
REMARK  165  A    between atoms: _408  and  _410
REMARK  166  A    between atoms: _410  and  _411
REMARK  167  A    between atoms: _413  and  _415
REMARK  168  A    between atoms: _415  and  _416
REMARK  169  A    between atoms: _415  and  _418
REMARK  170  A    between atoms: _418  and  _419
REMARK  171  A    between atoms: _424  and  _426
REMARK  172  A    between atoms: _426  and  _427
REMARK  173  A    between atoms: _426  and  _429
REMARK  174  A    between atoms: _429  and  _430
REMARK  175  A    between atoms: _433  and  _435
REMARK  176  A    between atoms: _435  and  _436
REMARK  177  A    between atoms: _435  and  _438
REMARK  178  A    between atoms: _438  and  _439
REMARK  179  A    between atoms: _442  and  _444
REMARK  180  A    between atoms: _444  and  _445
REMARK  181  A    between atoms: _444  and  _447
REMARK  182  A    between atoms: _447  and  _448
REMARK  183  A    between atoms: _448  and  _449
REMARK  184  A    between atoms: _451  and  _453
REMARK  185  A    between atoms: _453  and  _454
REMARK  186  A    between atoms: _453  and  _456
REMARK  187  A    between atoms: _456  and  _457
REMARK  188  A    between atoms: _463  and  _465
REMARK  189  A    between atoms: _465  and  _466
REMARK  190  A    between atoms: _470  and  _471
REMARK  191  A    between atoms: _476  and  _478
REMARK  192  A    between atoms: _478  and  _479
REMARK  193  A    between atoms: _478  and  _481
REMARK  194  A    between atoms: _481  and  _482
REMARK  195  A    between atoms: _485  and  _487
REMARK  196  A    between atoms: _487  and  _488
REMARK  197  A    between atoms: _487  and  _490
REMARK  198  A    between atoms: _490  and  _491
REMARK  199  A    between atoms: _501  and  _503
REMARK  200  A    between atoms: _503  and  _504
REMARK  201  A    between atoms: _503  and  _506
REMARK  202  A    between atoms: _508  and  _510
REMARK  203  A    between atoms: _510  and  _511
REMARK  204  A    between atoms: _510  and  _513
REMARK  205  A    between atoms: _513  and  _514
REMARK  206  A    between atoms: _514  and  _515
REMARK  207  A    between atoms: _518  and  _520
REMARK  208  A    between atoms: _520  and  _521
REMARK  209  A    between atoms: _520  and  _523
REMARK  210  A    between atoms: _523  and  _524
REMARK  211  A    between atoms: _527  and  _529
REMARK  212  A    between atoms: _529  and  _530
REMARK  213  A    between atoms: _529  and  _532
REMARK  214  A    between atoms: _532  and  _533
REMARK  215  A    between atoms: _538  and  _539
REMARK  216  A    between atoms: _541  and  _543
REMARK  217  A    between atoms: _543  and  _544
REMARK  218  A    between atoms: _546  and  _548
REMARK  219  A    between atoms: _548  and  _549
REMARK  220  A    between atoms: _552  and  _554
REMARK  221  A    between atoms: _554  and  _555
REMARK  222  A    between atoms: _554  and  _557
REMARK  223  A    between atoms: _559  and  _561
REMARK  224  A    between atoms: _561  and  _562
REMARK  225  A    between atoms: _561  and  _564
REMARK  226  A    between atoms: _564  and  _565
REMARK  227  A    between atoms: _570  and  _571
REMARK  228  A    between atoms: _573  and  _575
REMARK  229  A    between atoms: _575  and  _576
REMARK  230  A    between atoms: _575  and  _578
REMARK  231  A    between atoms: _578  and  _579
REMARK  232  A    between atoms: _584  and  _586
REMARK  233  A    between atoms: _586  and  _587
REMARK  234  A    between atoms: _586  and  _589
REMARK  235  A    between atoms: _589  and  _590
REMARK  236  A    between atoms: _596  and  _598
REMARK  237  A    between atoms: _598  and  _599
REMARK  238  A    between atoms: _602  and  _604
REMARK  239  A    between atoms: _604  and  _605
REMARK  240  A    between atoms: _607  and  _609
REMARK  241  A    between atoms: _609  and  _610
REMARK  242  A    between atoms: _609  and  _612
REMARK  243  A    between atoms: _612  and  _613
REMARK  244  A    between atoms: _618  and  _619
REMARK  245  A    between atoms: _621  and  _623
REMARK  246  A    between atoms: _623  and  _624
REMARK  247  A    between atoms: _623  and  _626
REMARK  248  A    between atoms: _626  and  _627
REMARK  249  A    between atoms: _629  and  _631
REMARK  250  A    between atoms: _631  and  _632
REMARK  251  A    between atoms: _634  and  _636
REMARK  252  A    between atoms: _636  and  _637
REMARK                            x       y       z     vdW  Elec       q    Type
REMARK                         _______ _______ _______ _____ _____    ______ ____
ROOT
ATOM      1  O   HOH     1      43.188  10.280 -17.249  0.00  0.00    +0.000 OA
ENDROOT
TORSDOF 0
REMARK  Name = ../refined-set-2016/3hkw/3hkw_pocket.pdb
REMARK  252 active torsions:
REMARK  status: ('A' for Active; 'I' for Inactive)
REMARK    1  A    between atoms: _1  and  _3
REMARK    2  A    between atoms: _3  and  _4
REMARK    3  A    between atoms: _3  and  _6
REMARK    4  A    between atoms: _6  and  _7
REMARK    5  A    between atoms: _7  and  _8
REMARK    6  A    between atoms: _8  and  _9
REMARK    7  A    between atoms: _9  and  _10
REMARK    8  A    between atoms: _14  and  _16
REMARK    9  A    between atoms: _16  and  _17
REMARK   10  A    between atoms: _16  and  _19
REMARK   11  A    between atoms: _19  and  _20
REMARK   12  A    between atoms: _20  and  _21
REMARK   13  A    between atoms: _24  and  _26
REMARK   14  A    between atoms: _26  and  _27
REMARK   15  A    between atoms: _26  and  _29
REMARK   16  A    between atoms: _29  and  _30
REMARK   17  A    between atoms: _30  and  _31
REMARK   18  A    between atoms: _31  and  _32
REMARK   19  A    between atoms: _41  and  _43
REMARK   20  A    between atoms: _43  and  _44
REMARK   21  A    between atoms: _46  and  _48
REMARK   22  A    between atoms: _48  and  _49
REMARK   23  A    between atoms: _48  and  _51
REMARK   24  A    between atoms: _51  and  _52
REMARK   25  A    between atoms: _58  and  _60
REMARK   26  A    between atoms: _60  and  _61
REMARK   27  A    between atoms: _60  and  _63
REMARK   28  A    between atoms: _63  and  _64
REMARK   29  A    between atoms: _69  and  _70
REMARK   30  A    between atoms: _72  and  _74
REMARK   31  A    between atoms: _74  and  _75
REMARK   32  A    between atoms: _74  and  _77
REMARK   33  A    between atoms: _77  and  _78
REMARK   34  A    between atoms: _81  and  _82
REMARK   35  A    between atoms: _87  and  _89
REMARK   36  A    between atoms: _89  and  _90
REMARK   37  A    between atoms: _92  and  _94
REMARK   38  A    between atoms: _94  and  _95
REMARK   39  A    between atoms: _94  and  _97
REMARK   40  A    between atoms: _97  and  _98
REMARK   41  A    between atoms: _98  and  _99
REMARK   42  A    between atoms: _104  and  _106
REMARK   43  A    between atoms: _106  and  _107
REMARK   44  A    between atoms: _106  and  _109
REMARK   45  A    between atoms: _109  and  _110
REMARK   46  A    between atoms: _110  and  _111
REMARK   47  A    between atoms: _111  and  _112
REMARK   48  A    between atoms: _121  and  _123
REMARK   49  A    between atoms: _123  and  _124
REMARK   50  A    between atoms: _123  and  _126
REMARK   51  A    between atoms: _129  and  _131
REMARK   52  A    between atoms: _131  and  _132
REMARK   53  A    between atoms: _131  and  _134
REMARK   54  A    between atoms: _134  and  _135
REMARK   55  A    between atoms: _138  and  _140
REMARK   56  A    between atoms: _140  and  _141
REMARK   57  A    between atoms: _140  and  _143
REMARK   58  A    between atoms: _143  and  _144
REMARK   59  A    between atoms: _147  and  _149
REMARK   60  A    between atoms: _149  and  _150
REMARK   61  A    between atoms: _149  and  _152
REMARK   62  A    between atoms: _152  and  _153
REMARK   63  A    between atoms: _155  and  _157
REMARK   64  A    between atoms: _157  and  _158
REMARK   65  A    between atoms: _157  and  _160
REMARK   66  A    between atoms: _160  and  _161
REMARK   67  A    between atoms: _164  and  _166
REMARK   68  A    between atoms: _166  and  _167
REMARK   69  A    between atoms: _166  and  _169
REMARK   70  A    between atoms: _169  and  _170
REMARK   71  A    between atoms: _172  and  _174
REMARK   72  A    between atoms: _174  and  _175
REMARK   73  A    between atoms: _174  and  _177
REMARK   74  A    between atoms: _177  and  _178
REMARK   75  A    between atoms: _183  and  _185
REMARK   76  A    between atoms: _185  and  _186
REMARK   77  A    between atoms: _185  and  _188
REMARK   78  A    between atoms: _188  and  _189
REMARK   79  A    between atoms: _192  and  _194
REMARK   80  A    between atoms: _194  and  _195
REMARK   81  A    between atoms: _194  and  _197
REMARK   82  A    between atoms: _199  and  _201
REMARK   83  A    between atoms: _201  and  _202
REMARK   84  A    between atoms: _204  and  _206
REMARK   85  A    between atoms: _206  and  _207
REMARK   86  A    between atoms: _206  and  _209
REMARK   87  A    between atoms: _209  and  _210
REMARK   88  A    between atoms: _213  and  _215
REMARK   89  A    between atoms: _215  and  _216
REMARK   90  A    between atoms: _215  and  _218
REMARK   91  A    between atoms: _218  and  _219
REMARK   92  A    between atoms: _222  and  _224
REMARK   93  A    between atoms: _224  and  _225
REMARK   94  A    between atoms: _224  and  _227
REMARK   95  A    between atoms: _227  and  _228
REMARK   96  A    between atoms: _230  and  _232
REMARK   97  A    between atoms: _232  and  _233
REMARK   98  A    between atoms: _232  and  _235
REMARK   99  A    between atoms: _237  and  _239
REMARK  100  A    between atoms: _239  and  _240
REMARK  101  A    between atoms: _239  and  _242
REMARK  102  A    between atoms: _242  and  _243
REMARK  103  A    between atoms: _245  and  _247
REMARK  104  A    between atoms: _247  and  _248
REMARK  105  A    between atoms: _247  and  _250
REMARK  106  A    between atoms: _250  and  _251
REMARK  107  A    between atoms: _253  and  _255
REMARK  108  A    between atoms: _255  and  _256
REMARK  109  A    between atoms: _255  and  _258
REMARK  110  A    between atoms: _258  and  _259
REMARK  111  A    between atoms: _264  and  _266
REMARK  112  A    between atoms: _266  and  _267
REMARK  113  A    between atoms: _266  and  _269
REMARK  114  A    between atoms: _269  and  _270
REMARK  115  A    between atoms: _275  and  _276
REMARK  116  A    between atoms: _278  and  _280
REMARK  117  A    between atoms: _280  and  _281
REMARK  118  A    between atoms: _280  and  _283
REMARK  119  A    between atoms: _283  and  _284
REMARK  120  A    between atoms: _287  and  _289
REMARK  121  A    between atoms: _289  and  _290
REMARK  122  A    between atoms: _289  and  _292
REMARK  123  A    between atoms: _292  and  _293
REMARK  124  A    between atoms: _296  and  _298
REMARK  125  A    between atoms: _298  and  _299
REMARK  126  A    between atoms: _298  and  _301
REMARK  127  A    between atoms: _301  and  _302
REMARK  128  A    between atoms: _302  and  _303
REMARK  129  A    between atoms: _303  and  _304
REMARK  130  A    between atoms: _313  and  _315
REMARK  131  A    between atoms: _315  and  _316
REMARK  132  A    between atoms: _315  and  _318
REMARK  133  A    between atoms: _318  and  _319
REMARK  134  A    between atoms: _323  and  _324
REMARK  135  A    between atoms: _329  and  _331
REMARK  136  A    between atoms: _331  and  _332
REMARK  137  A    between atoms: _331  and  _334
REMARK  138  A    between atoms: _334  and  _335
REMARK  139  A    between atoms: _335  and  _336
REMARK  140  A    between atoms: _336  and  _337
REMARK  141  A    between atoms: _346  and  _348
REMARK  142  A    between atoms: _348  and  _349
REMARK  143  A    between atoms: _348  and  _351
REMARK  144  A    between atoms: _351  and  _352
REMARK  145  A    between atoms: _352  and  _353
REMARK  146  A    between atoms: _356  and  _358
REMARK  147  A    between atoms: _358  and  _359
REMARK  148  A    between atoms: _358  and  _361
REMARK  149  A    between atoms: _364  and  _366
REMARK  150  A    between atoms: _366  and  _367
REMARK  151  A    between atoms: _366  and  _369
REMARK  152  A    between atoms: _369  and  _370
REMARK  153  A    between atoms: _375  and  _377
REMARK  154  A    between atoms: _377  and  _378
REMARK  155  A    between atoms: _377  and  _380
REMARK  156  A    between atoms: _380  and  _381
REMARK  157  A    between atoms: _383  and  _385
REMARK  158  A    between atoms: _385  and  _386
REMARK  159  A    between atoms: _385  and  _388
REMARK  160  A    between atoms: _388  and  _389
REMARK  161  A    between atoms: _399  and  _401
REMARK  162  A    between atoms: _401  and  _402
REMARK  163  A    between atoms: _401  and  _404
REMARK  164  A    between atoms: _404  and  _405
REMARK  165  A    between atoms: _408  and  _410
REMARK  166  A    between atoms: _410  and  _411
REMARK  167  A    between atoms: _413  and  _415
REMARK  168  A    between atoms: _415  and  _416
REMARK  169  A    between atoms: _415  and  _418
REMARK  170  A    between atoms: _418  and  _419
REMARK  171  A    between atoms: _424  and  _426
REMARK  172  A    between atoms: _426  and  _427
REMARK  173  A    between atoms: _426  and  _429
REMARK  174  A    between atoms: _429  and  _430
REMARK  175  A    between atoms: _433  and  _435
REMARK  176  A    between atoms: _435  and  _436
REMARK  177  A    between atoms: _435  and  _438
REMARK  178  A    between atoms: _438  and  _439
REMARK  179  A    between atoms: _442  and  _444
REMARK  180  A    between atoms: _444  and  _445
REMARK  181  A    between atoms: _444  and  _447
REMARK  182  A    between atoms: _447  and  _448
REMARK  183  A    between atoms: _448  and  _449
REMARK  184  A    between atoms: _451  and  _453
REMARK  185  A    between atoms: _453  and  _454
REMARK  186  A    between atoms: _453  and  _456
REMARK  187  A    between atoms: _456  and  _457
REMARK  188  A    between atoms: _463  and  _465
REMARK  189  A    between atoms: _465  and  _466
REMARK  190  A    between atoms: _470  and  _471
REMARK  191  A    between atoms: _476  and  _478
REMARK  192  A    between atoms: _478  and  _479
REMARK  193  A    between atoms: _478  and  _481
REMARK  194  A    between atoms: _481  and  _482
REMARK  195  A    between atoms: _485  and  _487
REMARK  196  A    between atoms: _487  and  _488
REMARK  197  A    between atoms: _487  and  _490
REMARK  198  A    between atoms: _490  and  _491
REMARK  199  A    between atoms: _501  and  _503
REMARK  200  A    between atoms: _503  and  _504
REMARK  201  A    between atoms: _503  and  _506
REMARK  202  A    between atoms: _508  and  _510
REMARK  203  A    between atoms: _510  and  _511
REMARK  204  A    between atoms: _510  and  _513
REMARK  205  A    between atoms: _513  and  _514
REMARK  206  A    between atoms: _514  and  _515
REMARK  207  A    between atoms: _518  and  _520
REMARK  208  A    between atoms: _520  and  _521
REMARK  209  A    between atoms: _520  and  _523
REMARK  210  A    between atoms: _523  and  _524
REMARK  211  A    between atoms: _527  and  _529
REMARK  212  A    between atoms: _529  and  _530
REMARK  213  A    between atoms: _529  and  _532
REMARK  214  A    between atoms: _532  and  _533
REMARK  215  A    between atoms: _538  and  _539
REMARK  216  A    between atoms: _541  and  _543
REMARK  217  A    between atoms: _543  and  _544
REMARK  218  A    between atoms: _546  and  _548
REMARK  219  A    between atoms: _548  and  _549
REMARK  220  A    between atoms: _552  and  _554
REMARK  221  A    between atoms: _554  and  _555
REMARK  222  A    between atoms: _554  and  _557
REMARK  223  A    between atoms: _559  and  _561
REMARK  224  A    between atoms: _561  and  _562
REMARK  225  A    between atoms: _561  and  _564
REMARK  226  A    between atoms: _564  and  _565
REMARK  227  A    between atoms: _570  and  _571
REMARK  228  A    between atoms: _573  and  _575
REMARK  229  A    between atoms: _575  and  _576
REMARK  230  A    between atoms: _575  and  _578
REMARK  231  A    between atoms: _578  and  _579
REMARK  232  A    between atoms: _584  and  _586
REMARK  233  A    between atoms: _586  and  _587
REMARK  234  A    between atoms: _586  and  _589
REMARK  235  A    between atoms: _589  and  _590
REMARK  236  A    between atoms: _596  and  _598
REMARK  237  A    between atoms: _598  and  _599
REMARK  238  A    between atoms: _602  and  _604
REMARK  239  A    between atoms: _604  and  _605
REMARK  240  A    between atoms: _607  and  _609
REMARK  241  A    between atoms: _609  and  _610
REMARK  242  A    between atoms: _609  and  _612
REMARK  243  A    between atoms: _612  and  _613
REMARK  244  A    between atoms: _618  and  _619
REMARK  245  A    between atoms: _621  and  _623
REMARK  246  A    between atoms: _623  and  _624
REMARK  247  A    between atoms: _623  and  _626
REMARK  248  A    between atoms: _626  and  _627
REMARK  249  A    between atoms: _629  and  _631
REMARK  250  A    between atoms: _631  and  _632
REMARK  251  A    between atoms: _634  and  _636
REMARK  252  A    between atoms: _636  and  _637
REMARK                            x       y       z     vdW  Elec       q    Type
REMARK                         _______ _______ _______ _____ _____    ______ ____
ROOT
ATOM      1  O   HOH     1      44.619  -5.820 -13.610  0.00  0.00    +0.000 OA
ENDROOT
TORSDOF 0
REMARK  Name = ../refined-set-2016/3hkw/3hkw_pocket.pdb
REMARK  252 active torsions:
REMARK  status: ('A' for Active; 'I' for Inactive)
REMARK    1  A    between atoms: _1  and  _3
REMARK    2  A    between atoms: _3  and  _4
REMARK    3  A    between atoms: _3  and  _6
REMARK    4  A    between atoms: _6  and  _7
REMARK    5  A    between atoms: _7  and  _8
REMARK    6  A    between atoms: _8  and  _9
REMARK    7  A    between atoms: _9  and  _10
REMARK    8  A    between atoms: _14  and  _16
REMARK    9  A    between atoms: _16  and  _17
REMARK   10  A    between atoms: _16  and  _19
REMARK   11  A    between atoms: _19  and  _20
REMARK   12  A    between atoms: _20  and  _21
REMARK   13  A    between atoms: _24  and  _26
REMARK   14  A    between atoms: _26  and  _27
REMARK   15  A    between atoms: _26  and  _29
REMARK   16  A    between atoms: _29  and  _30
REMARK   17  A    between atoms: _30  and  _31
REMARK   18  A    between atoms: _31  and  _32
REMARK   19  A    between atoms: _41  and  _43
REMARK   20  A    between atoms: _43  and  _44
REMARK   21  A    between atoms: _46  and  _48
REMARK   22  A    between atoms: _48  and  _49
REMARK   23  A    between atoms: _48  and  _51
REMARK   24  A    between atoms: _51  and  _52
REMARK   25  A    between atoms: _58  and  _60
REMARK   26  A    between atoms: _60  and  _61
REMARK   27  A    between atoms: _60  and  _63
REMARK   28  A    between atoms: _63  and  _64
REMARK   29  A    between atoms: _69  and  _70
REMARK   30  A    between atoms: _72  and  _74
REMARK   31  A    between atoms: _74  and  _75
REMARK   32  A    between atoms: _74  and  _77
REMARK   33  A    between atoms: _77  and  _78
REMARK   34  A    between atoms: _81  and  _82
REMARK   35  A    between atoms: _87  and  _89
REMARK   36  A    between atoms: _89  and  _90
REMARK   37  A    between atoms: _92  and  _94
REMARK   38  A    between atoms: _94  and  _95
REMARK   39  A    between atoms: _94  and  _97
REMARK   40  A    between atoms: _97  and  _98
REMARK   41  A    between atoms: _98  and  _99
REMARK   42  A    between atoms: _104  and  _106
REMARK   43  A    between atoms: _106  and  _107
REMARK   44  A    between atoms: _106  and  _109
REMARK   45  A    between atoms: _109  and  _110
REMARK   46  A    between atoms: _110  and  _111
REMARK   47  A    between atoms: _111  and  _112
REMARK   48  A    between atoms: _121  and  _123
REMARK   49  A    between atoms: _123  and  _124
REMARK   50  A    between atoms: _123  and  _126
REMARK   51  A    between atoms: _129  and  _131
REMARK   52  A    between atoms: _131  and  _132
REMARK   53  A    between atoms: _131  and  _134
REMARK   54  A    between atoms: _134  and  _135
REMARK   55  A    between atoms: _138  and  _140
REMARK   56  A    between atoms: _140  and  _141
REMARK   57  A    between atoms: _140  and  _143
REMARK   58  A    between atoms: _143  and  _144
REMARK   59  A    between atoms: _147  and  _149
REMARK   60  A    between atoms: _149  and  _150
REMARK   61  A    between atoms: _149  and  _152
REMARK   62  A    between atoms: _152  and  _153
REMARK   63  A    between atoms: _155  and  _157
REMARK   64  A    between atoms: _157  and  _158
REMARK   65  A    between atoms: _157  and  _160
REMARK   66  A    between atoms: _160  and  _161
REMARK   67  A    between atoms: _164  and  _166
REMARK   68  A    between atoms: _166  and  _167
REMARK   69  A    between atoms: _166  and  _169
REMARK   70  A    between atoms: _169  and  _170
REMARK   71  A    between atoms: _172  and  _174
REMARK   72  A    between atoms: _174  and  _175
REMARK   73  A    between atoms: _174  and  _177
REMARK   74  A    between atoms: _177  and  _178
REMARK   75  A    between atoms: _183  and  _185
REMARK   76  A    between atoms: _185  and  _186
REMARK   77  A    between atoms: _185  and  _188
REMARK   78  A    between atoms: _188  and  _189
REMARK   79  A    between atoms: _192  and  _194
REMARK   80  A    between atoms: _194  and  _195
REMARK   81  A    between atoms: _194  and  _197
REMARK   82  A    between atoms: _199  and  _201
REMARK   83  A    between atoms: _201  and  _202
REMARK   84  A    between atoms: _204  and  _206
REMARK   85  A    between atoms: _206  and  _207
REMARK   86  A    between atoms: _206  and  _209
REMARK   87  A    between atoms: _209  and  _210
REMARK   88  A    between atoms: _213  and  _215
REMARK   89  A    between atoms: _215  and  _216
REMARK   90  A    between atoms: _215  and  _218
REMARK   91  A    between atoms: _218  and  _219
REMARK   92  A    between atoms: _222  and  _224
REMARK   93  A    between atoms: _224  and  _225
REMARK   94  A    between atoms: _224  and  _227
REMARK   95  A    between atoms: _227  and  _228
REMARK   96  A    between atoms: _230  and  _232
REMARK   97  A    between atoms: _232  and  _233
REMARK   98  A    between atoms: _232  and  _235
REMARK   99  A    between atoms: _237  and  _239
REMARK  100  A    between atoms: _239  and  _240
REMARK  101  A    between atoms: _239  and  _242
REMARK  102  A    between atoms: _242  and  _243
REMARK  103  A    between atoms: _245  and  _247
REMARK  104  A    between atoms: _247  and  _248
REMARK  105  A    between atoms: _247  and  _250
REMARK  106  A    between atoms: _250  and  _251
REMARK  107  A    between atoms: _253  and  _255
REMARK  108  A    between atoms: _255  and  _256
REMARK  109  A    between atoms: _255  and  _258
REMARK  110  A    between atoms: _258  and  _259
REMARK  111  A    between atoms: _264  and  _266
REMARK  112  A    between atoms: _266  and  _267
REMARK  113  A    between atoms: _266  and  _269
REMARK  114  A    between atoms: _269  and  _270
REMARK  115  A    between atoms: _275  and  _276
REMARK  116  A    between atoms: _278  and  _280
REMARK  117  A    between atoms: _280  and  _281
REMARK  118  A    between atoms: _280  and  _283
REMARK  119  A    between atoms: _283  and  _284
REMARK  120  A    between atoms: _287  and  _289
REMARK  121  A    between atoms: _289  and  _290
REMARK  122  A    between atoms: _289  and  _292
REMARK  123  A    between atoms: _292  and  _293
REMARK  124  A    between atoms: _296  and  _298
REMARK  125  A    between atoms: _298  and  _299
REMARK  126  A    between atoms: _298  and  _301
REMARK  127  A    between atoms: _301  and  _302
REMARK  128  A    between atoms: _302  and  _303
REMARK  129  A    between atoms: _303  and  _304
REMARK  130  A    between atoms: _313  and  _315
REMARK  131  A    between atoms: _315  and  _316
REMARK  132  A    between atoms: _315  and  _318
REMARK  133  A    between atoms: _318  and  _319
REMARK  134  A    between atoms: _323  and  _324
REMARK  135  A    between atoms: _329  and  _331
REMARK  136  A    between atoms: _331  and  _332
REMARK  137  A    between atoms: _331  and  _334
REMARK  138  A    between atoms: _334  and  _335
REMARK  139  A    between atoms: _335  and  _336
REMARK  140  A    between atoms: _336  and  _337
REMARK  141  A    between atoms: _346  and  _348
REMARK  142  A    between atoms: _348  and  _349
REMARK  143  A    between atoms: _348  and  _351
REMARK  144  A    between atoms: _351  and  _352
REMARK  145  A    between atoms: _352  and  _353
REMARK  146  A    between atoms: _356  and  _358
REMARK  147  A    between atoms: _358  and  _359
REMARK  148  A    between atoms: _358  and  _361
REMARK  149  A    between atoms: _364  and  _366
REMARK  150  A    between atoms: _366  and  _367
REMARK  151  A    between atoms: _366  and  _369
REMARK  152  A    between atoms: _369  and  _370
REMARK  153  A    between atoms: _375  and  _377
REMARK  154  A    between atoms: _377  and  _378
REMARK  155  A    between atoms: _377  and  _380
REMARK  156  A    between atoms: _380  and  _381
REMARK  157  A    between atoms: _383  and  _385
REMARK  158  A    between atoms: _385  and  _386
REMARK  159  A    between atoms: _385  and  _388
REMARK  160  A    between atoms: _388  and  _389
REMARK  161  A    between atoms: _399  and  _401
REMARK  162  A    between atoms: _401  and  _402
REMARK  163  A    between atoms: _401  and  _404
REMARK  164  A    between atoms: _404  and  _405
REMARK  165  A    between atoms: _408  and  _410
REMARK  166  A    between atoms: _410  and  _411
REMARK  167  A    between atoms: _413  and  _415
REMARK  168  A    between atoms: _415  and  _416
REMARK  169  A    between atoms: _415  and  _418
REMARK  170  A    between atoms: _418  and  _419
REMARK  171  A    between atoms: _424  and  _426
REMARK  172  A    between atoms: _426  and  _427
REMARK  173  A    between atoms: _426  and  _429
REMARK  174  A    between atoms: _429  and  _430
REMARK  175  A    between atoms: _433  and  _435
REMARK  176  A    between atoms: _435  and  _436
REMARK  177  A    between atoms: _435  and  _438
REMARK  178  A    between atoms: _438  and  _439
REMARK  179  A    between atoms: _442  and  _444
REMARK  180  A    between atoms: _444  and  _445
REMARK  181  A    between atoms: _444  and  _447
REMARK  182  A    between atoms: _447  and  _448
REMARK  183  A    between atoms: _448  and  _449
REMARK  184  A    between atoms: _451  and  _453
REMARK  185  A    between atoms: _453  and  _454
REMARK  186  A    between atoms: _453  and  _456
REMARK  187  A    between atoms: _456  and  _457
REMARK  188  A    between atoms: _463  and  _465
REMARK  189  A    between atoms: _465  and  _466
REMARK  190  A    between atoms: _470  and  _471
REMARK  191  A    between atoms: _476  and  _478
REMARK  192  A    between atoms: _478  and  _479
REMARK  193  A    between atoms: _478  and  _481
REMARK  194  A    between atoms: _481  and  _482
REMARK  195  A    between atoms: _485  and  _487
REMARK  196  A    between atoms: _487  and  _488
REMARK  197  A    between atoms: _487  and  _490
REMARK  198  A    between atoms: _490  and  _491
REMARK  199  A    between atoms: _501  and  _503
REMARK  200  A    between atoms: _503  and  _504
REMARK  201  A    between atoms: _503  and  _506
REMARK  202  A    between atoms: _508  and  _510
REMARK  203  A    between atoms: _510  and  _511
REMARK  204  A    between atoms: _510  and  _513
REMARK  205  A    between atoms: _513  and  _514
REMARK  206  A    between atoms: _514  and  _515
REMARK  207  A    between atoms: _518  and  _520
REMARK  208  A    between atoms: _520  and  _521
REMARK  209  A    between atoms: _520  and  _523
REMARK  210  A    between atoms: _523  and  _524
REMARK  211  A    between atoms: _527  and  _529
REMARK  212  A    between atoms: _529  and  _530
REMARK  213  A    between atoms: _529  and  _532
REMARK  214  A    between atoms: _532  and  _533
REMARK  215  A    between atoms: _538  and  _539
REMARK  216  A    between atoms: _541  and  _543
REMARK  217  A    between atoms: _543  and  _544
REMARK  218  A    between atoms: _546  and  _548
REMARK  219  A    between atoms: _548  and  _549
REMARK  220  A    between atoms: _552  and  _554
REMARK  221  A    between atoms: _554  and  _555
REMARK  222  A    between atoms: _554  and  _557
REMARK  223  A    between atoms: _559  and  _561
REMARK  224  A    between atoms: _561  and  _562
REMARK  225  A    between atoms: _561  and  _564
REMARK  226  A    between atoms: _564  and  _565
REMARK  227  A    between atoms: _570  and  _571
REMARK  228  A    between atoms: _573  and  _575
REMARK  229  A    between atoms: _575  and  _576
REMARK  230  A    between atoms: _575  and  _578
REMARK  231  A    between atoms: _578  and  _579
REMARK  232  A    between atoms: _584  and  _586
REMARK  233  A    between atoms: _586  and  _587
REMARK  234  A    between atoms: _586  and  _589
REMARK  235  A    between atoms: _589  and  _590
REMARK  236  A    between atoms: _596  and  _598
REMARK  237  A    between atoms: _598  and  _599
REMARK  238  A    between atoms: _602  and  _604
REMARK  239  A    between atoms: _604  and  _605
REMARK  240  A    between atoms: _607  and  _609
REMARK  241  A    between atoms: _609  and  _610
REMARK  242  A    between atoms: _609  and  _612
REMARK  243  A    between atoms: _612  and  _613
REMARK  244  A    between atoms: _618  and  _619
REMARK  245  A    between atoms: _621  and  _623
REMARK  246  A    between atoms: _623  and  _624
REMARK  247  A    between atoms: _623  and  _626
REMARK  248  A    between atoms: _626  and  _627
REMARK  249  A    between atoms: _629  and  _631
REMARK  250  A    between atoms: _631  and  _632
REMARK  251  A    between atoms: _634  and  _636
REMARK  252  A    between atoms: _636  and  _637
REMARK                            x       y       z     vdW  Elec       q    Type
REMARK                         _______ _______ _______ _____ _____    ______ ____
ROOT
ATOM      1  O   HOH     1      40.093  -7.104 -14.775  0.00  0.00    +0.000 OA
ENDROOT
TORSDOF 0
REMARK  Name = ../refined-set-2016/3hkw/3hkw_pocket.pdb
REMARK  252 active torsions:
REMARK  status: ('A' for Active; 'I' for Inactive)
REMARK    1  A    between atoms: _1  and  _3
REMARK    2  A    between atoms: _3  and  _4
REMARK    3  A    between atoms: _3  and  _6
REMARK    4  A    between atoms: _6  and  _7
REMARK    5  A    between atoms: _7  and  _8
REMARK    6  A    between atoms: _8  and  _9
REMARK    7  A    between atoms: _9  and  _10
REMARK    8  A    between atoms: _14  and  _16
REMARK    9  A    between atoms: _16  and  _17
REMARK   10  A    between atoms: _16  and  _19
REMARK   11  A    between atoms: _19  and  _20
REMARK   12  A    between atoms: _20  and  _21
REMARK   13  A    between atoms: _24  and  _26
REMARK   14  A    between atoms: _26  and  _27
REMARK   15  A    between atoms: _26  and  _29
REMARK   16  A    between atoms: _29  and  _30
REMARK   17  A    between atoms: _30  and  _31
REMARK   18  A    between atoms: _31  and  _32
REMARK   19  A    between atoms: _41  and  _43
REMARK   20  A    between atoms: _43  and  _44
REMARK   21  A    between atoms: _46  and  _48
REMARK   22  A    between atoms: _48  and  _49
REMARK   23  A    between atoms: _48  and  _51
REMARK   24  A    between atoms: _51  and  _52
REMARK   25  A    between atoms: _58  and  _60
REMARK   26  A    between atoms: _60  and  _61
REMARK   27  A    between atoms: _60  and  _63
REMARK   28  A    between atoms: _63  and  _64
REMARK   29  A    between atoms: _69  and  _70
REMARK   30  A    between atoms: _72  and  _74
REMARK   31  A    between atoms: _74  and  _75
REMARK   32  A    between atoms: _74  and  _77
REMARK   33  A    between atoms: _77  and  _78
REMARK   34  A    between atoms: _81  and  _82
REMARK   35  A    between atoms: _87  and  _89
REMARK   36  A    between atoms: _89  and  _90
REMARK   37  A    between atoms: _92  and  _94
REMARK   38  A    between atoms: _94  and  _95
REMARK   39  A    between atoms: _94  and  _97
REMARK   40  A    between atoms: _97  and  _98
REMARK   41  A    between atoms: _98  and  _99
REMARK   42  A    between atoms: _104  and  _106
REMARK   43  A    between atoms: _106  and  _107
REMARK   44  A    between atoms: _106  and  _109
REMARK   45  A    between atoms: _109  and  _110
REMARK   46  A    between atoms: _110  and  _111
REMARK   47  A    between atoms: _111  and  _112
REMARK   48  A    between atoms: _121  and  _123
REMARK   49  A    between atoms: _123  and  _124
REMARK   50  A    between atoms: _123  and  _126
REMARK   51  A    between atoms: _129  and  _131
REMARK   52  A    between atoms: _131  and  _132
REMARK   53  A    between atoms: _131  and  _134
REMARK   54  A    between atoms: _134  and  _135
REMARK   55  A    between atoms: _138  and  _140
REMARK   56  A    between atoms: _140  and  _141
REMARK   57  A    between atoms: _140  and  _143
REMARK   58  A    between atoms: _143  and  _144
REMARK   59  A    between atoms: _147  and  _149
REMARK   60  A    between atoms: _149  and  _150
REMARK   61  A    between atoms: _149  and  _152
REMARK   62  A    between atoms: _152  and  _153
REMARK   63  A    between atoms: _155  and  _157
REMARK   64  A    between atoms: _157  and  _158
REMARK   65  A    between atoms: _157  and  _160
REMARK   66  A    between atoms: _160  and  _161
REMARK   67  A    between atoms: _164  and  _166
REMARK   68  A    between atoms: _166  and  _167
REMARK   69  A    between atoms: _166  and  _169
REMARK   70  A    between atoms: _169  and  _170
REMARK   71  A    between atoms: _172  and  _174
REMARK   72  A    between atoms: _174  and  _175
REMARK   73  A    between atoms: _174  and  _177
REMARK   74  A    between atoms: _177  and  _178
REMARK   75  A    between atoms: _183  and  _185
REMARK   76  A    between atoms: _185  and  _186
REMARK   77  A    between atoms: _185  and  _188
REMARK   78  A    between atoms: _188  and  _189
REMARK   79  A    between atoms: _192  and  _194
REMARK   80  A    between atoms: _194  and  _195
REMARK   81  A    between atoms: _194  and  _197
REMARK   82  A    between atoms: _199  and  _201
REMARK   83  A    between atoms: _201  and  _202
REMARK   84  A    between atoms: _204  and  _206
REMARK   85  A    between atoms: _206  and  _207
REMARK   86  A    between atoms: _206  and  _209
REMARK   87  A    between atoms: _209  and  _210
REMARK   88  A    between atoms: _213  and  _215
REMARK   89  A    between atoms: _215  and  _216
REMARK   90  A    between atoms: _215  and  _218
REMARK   91  A    between atoms: _218  and  _219
REMARK   92  A    between atoms: _222  and  _224
REMARK   93  A    between atoms: _224  and  _225
REMARK   94  A    between atoms: _224  and  _227
REMARK   95  A    between atoms: _227  and  _228
REMARK   96  A    between atoms: _230  and  _232
REMARK   97  A    between atoms: _232  and  _233
REMARK   98  A    between atoms: _232  and  _235
REMARK   99  A    between atoms: _237  and  _239
REMARK  100  A    between atoms: _239  and  _240
REMARK  101  A    between atoms: _239  and  _242
REMARK  102  A    between atoms: _242  and  _243
REMARK  103  A    between atoms: _245  and  _247
REMARK  104  A    between atoms: _247  and  _248
REMARK  105  A    between atoms: _247  and  _250
REMARK  106  A    between atoms: _250  and  _251
REMARK  107  A    between atoms: _253  and  _255
REMARK  108  A    between atoms: _255  and  _256
REMARK  109  A    between atoms: _255  and  _258
REMARK  110  A    between atoms: _258  and  _259
REMARK  111  A    between atoms: _264  and  _266
REMARK  112  A    between atoms: _266  and  _267
REMARK  113  A    between atoms: _266  and  _269
REMARK  114  A    between atoms: _269  and  _270
REMARK  115  A    between atoms: _275  and  _276
REMARK  116  A    between atoms: _278  and  _280
REMARK  117  A    between atoms: _280  and  _281
REMARK  118  A    between atoms: _280  and  _283
REMARK  119  A    between atoms: _283  and  _284
REMARK  120  A    between atoms: _287  and  _289
REMARK  121  A    between atoms: _289  and  _290
REMARK  122  A    between atoms: _289  and  _292
REMARK  123  A    between atoms: _292  and  _293
REMARK  124  A    between atoms: _296  and  _298
REMARK  125  A    between atoms: _298  and  _299
REMARK  126  A    between atoms: _298  and  _301
REMARK  127  A    between atoms: _301  and  _302
REMARK  128  A    between atoms: _302  and  _303
REMARK  129  A    between atoms: _303  and  _304
REMARK  130  A    between atoms: _313  and  _315
REMARK  131  A    between atoms: _315  and  _316
REMARK  132  A    between atoms: _315  and  _318
REMARK  133  A    between atoms: _318  and  _319
REMARK  134  A    between atoms: _323  and  _324
REMARK  135  A    between atoms: _329  and  _331
REMARK  136  A    between atoms: _331  and  _332
REMARK  137  A    between atoms: _331  and  _334
REMARK  138  A    between atoms: _334  and  _335
REMARK  139  A    between atoms: _335  and  _336
REMARK  140  A    between atoms: _336  and  _337
REMARK  141  A    between atoms: _346  and  _348
REMARK  142  A    between atoms: _348  and  _349
REMARK  143  A    between atoms: _348  and  _351
REMARK  144  A    between atoms: _351  and  _352
REMARK  145  A    between atoms: _352  and  _353
REMARK  146  A    between atoms: _356  and  _358
REMARK  147  A    between atoms: _358  and  _359
REMARK  148  A    between atoms: _358  and  _361
REMARK  149  A    between atoms: _364  and  _366
REMARK  150  A    between atoms: _366  and  _367
REMARK  151  A    between atoms: _366  and  _369
REMARK  152  A    between atoms: _369  and  _370
REMARK  153  A    between atoms: _375  and  _377
REMARK  154  A    between atoms: _377  and  _378
REMARK  155  A    between atoms: _377  and  _380
REMARK  156  A    between atoms: _380  and  _381
REMARK  157  A    between atoms: _383  and  _385
REMARK  158  A    between atoms: _385  and  _386
REMARK  159  A    between atoms: _385  and  _388
REMARK  160  A    between atoms: _388  and  _389
REMARK  161  A    between atoms: _399  and  _401
REMARK  162  A    between atoms: _401  and  _402
REMARK  163  A    between atoms: _401  and  _404
REMARK  164  A    between atoms: _404  and  _405
REMARK  165  A    between atoms: _408  and  _410
REMARK  166  A    between atoms: _410  and  _411
REMARK  167  A    between atoms: _413  and  _415
REMARK  168  A    between atoms: _415  and  _416
REMARK  169  A    between atoms: _415  and  _418
REMARK  170  A    between atoms: _418  and  _419
REMARK  171  A    between atoms: _424  and  _426
REMARK  172  A    between atoms: _426  and  _427
REMARK  173  A    between atoms: _426  and  _429
REMARK  174  A    between atoms: _429  and  _430
REMARK  175  A    between atoms: _433  and  _435
REMARK  176  A    between atoms: _435  and  _436
REMARK  177  A    between atoms: _435  and  _438
REMARK  178  A    between atoms: _438  and  _439
REMARK  179  A    between atoms: _442  and  _444
REMARK  180  A    between atoms: _444  and  _445
REMARK  181  A    between atoms: _444  and  _447
REMARK  182  A    between atoms: _447  and  _448
REMARK  183  A    between atoms: _448  and  _449
REMARK  184  A    between atoms: _451  and  _453
REMARK  185  A    between atoms: _453  and  _454
REMARK  186  A    between atoms: _453  and  _456
REMARK  187  A    between atoms: _456  and  _457
REMARK  188  A    between atoms: _463  and  _465
REMARK  189  A    between atoms: _465  and  _466
REMARK  190  A    between atoms: _470  and  _471
REMARK  191  A    between atoms: _476  and  _478
REMARK  192  A    between atoms: _478  and  _479
REMARK  193  A    between atoms: _478  and  _481
REMARK  194  A    between atoms: _481  and  _482
REMARK  195  A    between atoms: _485  and  _487
REMARK  196  A    between atoms: _487  and  _488
REMARK  197  A    between atoms: _487  and  _490
REMARK  198  A    between atoms: _490  and  _491
REMARK  199  A    between atoms: _501  and  _503
REMARK  200  A    between atoms: _503  and  _504
REMARK  201  A    between atoms: _503  and  _506
REMARK  202  A    between atoms: _508  and  _510
REMARK  203  A    between atoms: _510  and  _511
REMARK  204  A    between atoms: _510  and  _513
REMARK  205  A    between atoms: _513  and  _514
REMARK  206  A    between atoms: _514  and  _515
REMARK  207  A    between atoms: _518  and  _520
REMARK  208  A    between atoms: _520  and  _521
REMARK  209  A    between atoms: _520  and  _523
REMARK  210  A    between atoms: _523  and  _524
REMARK  211  A    between atoms: _527  and  _529
REMARK  212  A    between atoms: _529  and  _530
REMARK  213  A    between atoms: _529  and  _532
REMARK  214  A    between atoms: _532  and  _533
REMARK  215  A    between atoms: _538  and  _539
REMARK  216  A    between atoms: _541  and  _543
REMARK  217  A    between atoms: _543  and  _544
REMARK  218  A    between atoms: _546  and  _548
REMARK  219  A    between atoms: _548  and  _549
REMARK  220  A    between atoms: _552  and  _554
REMARK  221  A    between atoms: _554  and  _555
REMARK  222  A    between atoms: _554  and  _557
REMARK  223  A    between atoms: _559  and  _561
REMARK  224  A    between atoms: _561  and  _562
REMARK  225  A    between atoms: _561  and  _564
REMARK  226  A    between atoms: _564  and  _565
REMARK  227  A    between atoms: _570  and  _571
REMARK  228  A    between atoms: _573  and  _575
REMARK  229  A    between atoms: _575  and  _576
REMARK  230  A    between atoms: _575  and  _578
REMARK  231  A    between atoms: _578  and  _579
REMARK  232  A    between atoms: _584  and  _586
REMARK  233  A    between atoms: _586  and  _587
REMARK  234  A    between atoms: _586  and  _589
REMARK  235  A    between atoms: _589  and  _590
REMARK  236  A    between atoms: _596  and  _598
REMARK  237  A    between atoms: _598  and  _599
REMARK  238  A    between atoms: _602  and  _604
REMARK  239  A    between atoms: _604  and  _605
REMARK  240  A    between atoms: _607  and  _609
REMARK  241  A    between atoms: _609  and  _610
REMARK  242  A    between atoms: _609  and  _612
REMARK  243  A    between atoms: _612  and  _613
REMARK  244  A    between atoms: _618  and  _619
REMARK  245  A    between atoms: _621  and  _623
REMARK  246  A    between atoms: _623  and  _624
REMARK  247  A    between atoms: _623  and  _626
REMARK  248  A    between atoms: _626  and  _627
REMARK  249  A    between atoms: _629  and  _631
REMARK  250  A    between atoms: _631  and  _632
REMARK  251  A    between atoms: _634  and  _636
REMARK  252  A    between atoms: _636  and  _637
REMARK                            x       y       z     vdW  Elec       q    Type
REMARK                         _______ _______ _______ _____ _____    ______ ____
ROOT
ATOM      1  O   HOH     1      44.847  -2.568 -20.132  0.00  0.00    +0.000 OA
ENDROOT
TORSDOF 0
REMARK  Name = ../refined-set-2016/3hkw/3hkw_pocket.pdb
REMARK  252 active torsions:
REMARK  status: ('A' for Active; 'I' for Inactive)
REMARK    1  A    between atoms: _1  and  _3
REMARK    2  A    between atoms: _3  and  _4
REMARK    3  A    between atoms: _3  and  _6
REMARK    4  A    between atoms: _6  and  _7
REMARK    5  A    between atoms: _7  and  _8
REMARK    6  A    between atoms: _8  and  _9
REMARK    7  A    between atoms: _9  and  _10
REMARK    8  A    between atoms: _14  and  _16
REMARK    9  A    between atoms: _16  and  _17
REMARK   10  A    between atoms: _16  and  _19
REMARK   11  A    between atoms: _19  and  _20
REMARK   12  A    between atoms: _20  and  _21
REMARK   13  A    between atoms: _24  and  _26
REMARK   14  A    between atoms: _26  and  _27
REMARK   15  A    between atoms: _26  and  _29
REMARK   16  A    between atoms: _29  and  _30
REMARK   17  A    between atoms: _30  and  _31
REMARK   18  A    between atoms: _31  and  _32
REMARK   19  A    between atoms: _41  and  _43
REMARK   20  A    between atoms: _43  and  _44
REMARK   21  A    between atoms: _46  and  _48
REMARK   22  A    between atoms: _48  and  _49
REMARK   23  A    between atoms: _48  and  _51
REMARK   24  A    between atoms: _51  and  _52
REMARK   25  A    between atoms: _58  and  _60
REMARK   26  A    between atoms: _60  and  _61
REMARK   27  A    between atoms: _60  and  _63
REMARK   28  A    between atoms: _63  and  _64
REMARK   29  A    between atoms: _69  and  _70
REMARK   30  A    between atoms: _72  and  _74
REMARK   31  A    between atoms: _74  and  _75
REMARK   32  A    between atoms: _74  and  _77
REMARK   33  A    between atoms: _77  and  _78
REMARK   34  A    between atoms: _81  and  _82
REMARK   35  A    between atoms: _87  and  _89
REMARK   36  A    between atoms: _89  and  _90
REMARK   37  A    between atoms: _92  and  _94
REMARK   38  A    between atoms: _94  and  _95
REMARK   39  A    between atoms: _94  and  _97
REMARK   40  A    between atoms: _97  and  _98
REMARK   41  A    between atoms: _98  and  _99
REMARK   42  A    between atoms: _104  and  _106
REMARK   43  A    between atoms: _106  and  _107
REMARK   44  A    between atoms: _106  and  _109
REMARK   45  A    between atoms: _109  and  _110
REMARK   46  A    between atoms: _110  and  _111
REMARK   47  A    between atoms: _111  and  _112
REMARK   48  A    between atoms: _121  and  _123
REMARK   49  A    between atoms: _123  and  _124
REMARK   50  A    between atoms: _123  and  _126
REMARK   51  A    between atoms: _129  and  _131
REMARK   52  A    between atoms: _131  and  _132
REMARK   53  A    between atoms: _131  and  _134
REMARK   54  A    between atoms: _134  and  _135
REMARK   55  A    between atoms: _138  and  _140
REMARK   56  A    between atoms: _140  and  _141
REMARK   57  A    between atoms: _140  and  _143
REMARK   58  A    between atoms: _143  and  _144
REMARK   59  A    between atoms: _147  and  _149
REMARK   60  A    between atoms: _149  and  _150
REMARK   61  A    between atoms: _149  and  _152
REMARK   62  A    between atoms: _152  and  _153
REMARK   63  A    between atoms: _155  and  _157
REMARK   64  A    between atoms: _157  and  _158
REMARK   65  A    between atoms: _157  and  _160
REMARK   66  A    between atoms: _160  and  _161
REMARK   67  A    between atoms: _164  and  _166
REMARK   68  A    between atoms: _166  and  _167
REMARK   69  A    between atoms: _166  and  _169
REMARK   70  A    between atoms: _169  and  _170
REMARK   71  A    between atoms: _172  and  _174
REMARK   72  A    between atoms: _174  and  _175
REMARK   73  A    between atoms: _174  and  _177
REMARK   74  A    between atoms: _177  and  _178
REMARK   75  A    between atoms: _183  and  _185
REMARK   76  A    between atoms: _185  and  _186
REMARK   77  A    between atoms: _185  and  _188
REMARK   78  A    between atoms: _188  and  _189
REMARK   79  A    between atoms: _192  and  _194
REMARK   80  A    between atoms: _194  and  _195
REMARK   81  A    between atoms: _194  and  _197
REMARK   82  A    between atoms: _199  and  _201
REMARK   83  A    between atoms: _201  and  _202
REMARK   84  A    between atoms: _204  and  _206
REMARK   85  A    between atoms: _206  and  _207
REMARK   86  A    between atoms: _206  and  _209
REMARK   87  A    between atoms: _209  and  _210
REMARK   88  A    between atoms: _213  and  _215
REMARK   89  A    between atoms: _215  and  _216
REMARK   90  A    between atoms: _215  and  _218
REMARK   91  A    between atoms: _218  and  _219
REMARK   92  A    between atoms: _222  and  _224
REMARK   93  A    between atoms: _224  and  _225
REMARK   94  A    between atoms: _224  and  _227
REMARK   95  A    between atoms: _227  and  _228
REMARK   96  A    between atoms: _230  and  _232
REMARK   97  A    between atoms: _232  and  _233
REMARK   98  A    between atoms: _232  and  _235
REMARK   99  A    between atoms: _237  and  _239
REMARK  100  A    between atoms: _239  and  _240
REMARK  101  A    between atoms: _239  and  _242
REMARK  102  A    between atoms: _242  and  _243
REMARK  103  A    between atoms: _245  and  _247
REMARK  104  A    between atoms: _247  and  _248
REMARK  105  A    between atoms: _247  and  _250
REMARK  106  A    between atoms: _250  and  _251
REMARK  107  A    between atoms: _253  and  _255
REMARK  108  A    between atoms: _255  and  _256
REMARK  109  A    between atoms: _255  and  _258
REMARK  110  A    between atoms: _258  and  _259
REMARK  111  A    between atoms: _264  and  _266
REMARK  112  A    between atoms: _266  and  _267
REMARK  113  A    between atoms: _266  and  _269
REMARK  114  A    between atoms: _269  and  _270
REMARK  115  A    between atoms: _275  and  _276
REMARK  116  A    between atoms: _278  and  _280
REMARK  117  A    between atoms: _280  and  _281
REMARK  118  A    between atoms: _280  and  _283
REMARK  119  A    between atoms: _283  and  _284
REMARK  120  A    between atoms: _287  and  _289
REMARK  121  A    between atoms: _289  and  _290
REMARK  122  A    between atoms: _289  and  _292
REMARK  123  A    between atoms: _292  and  _293
REMARK  124  A    between atoms: _296  and  _298
REMARK  125  A    between atoms: _298  and  _299
REMARK  126  A    between atoms: _298  and  _301
REMARK  127  A    between atoms: _301  and  _302
REMARK  128  A    between atoms: _302  and  _303
REMARK  129  A    between atoms: _303  and  _304
REMARK  130  A    between atoms: _313  and  _315
REMARK  131  A    between atoms: _315  and  _316
REMARK  132  A    between atoms: _315  and  _318
REMARK  133  A    between atoms: _318  and  _319
REMARK  134  A    between atoms: _323  and  _324
REMARK  135  A    between atoms: _329  and  _331
REMARK  136  A    between atoms: _331  and  _332
REMARK  137  A    between atoms: _331  and  _334
REMARK  138  A    between atoms: _334  and  _335
REMARK  139  A    between atoms: _335  and  _336
REMARK  140  A    between atoms: _336  and  _337
REMARK  141  A    between atoms: _346  and  _348
REMARK  142  A    between atoms: _348  and  _349
REMARK  143  A    between atoms: _348  and  _351
REMARK  144  A    between atoms: _351  and  _352
REMARK  145  A    between atoms: _352  and  _353
REMARK  146  A    between atoms: _356  and  _358
REMARK  147  A    between atoms: _358  and  _359
REMARK  148  A    between atoms: _358  and  _361
REMARK  149  A    between atoms: _364  and  _366
REMARK  150  A    between atoms: _366  and  _367
REMARK  151  A    between atoms: _366  and  _369
REMARK  152  A    between atoms: _369  and  _370
REMARK  153  A    between atoms: _375  and  _377
REMARK  154  A    between atoms: _377  and  _378
REMARK  155  A    between atoms: _377  and  _380
REMARK  156  A    between atoms: _380  and  _381
REMARK  157  A    between atoms: _383  and  _385
REMARK  158  A    between atoms: _385  and  _386
REMARK  159  A    between atoms: _385  and  _388
REMARK  160  A    between atoms: _388  and  _389
REMARK  161  A    between atoms: _399  and  _401
REMARK  162  A    between atoms: _401  and  _402
REMARK  163  A    between atoms: _401  and  _404
REMARK  164  A    between atoms: _404  and  _405
REMARK  165  A    between atoms: _408  and  _410
REMARK  166  A    between atoms: _410  and  _411
REMARK  167  A    between atoms: _413  and  _415
REMARK  168  A    between atoms: _415  and  _416
REMARK  169  A    between atoms: _415  and  _418
REMARK  170  A    between atoms: _418  and  _419
REMARK  171  A    between atoms: _424  and  _426
REMARK  172  A    between atoms: _426  and  _427
REMARK  173  A    between atoms: _426  and  _429
REMARK  174  A    between atoms: _429  and  _430
REMARK  175  A    between atoms: _433  and  _435
REMARK  176  A    between atoms: _435  and  _436
REMARK  177  A    between atoms: _435  and  _438
REMARK  178  A    between atoms: _438  and  _439
REMARK  179  A    between atoms: _442  and  _444
REMARK  180  A    between atoms: _444  and  _445
REMARK  181  A    between atoms: _444  and  _447
REMARK  182  A    between atoms: _447  and  _448
REMARK  183  A    between atoms: _448  and  _449
REMARK  184  A    between atoms: _451  and  _453
REMARK  185  A    between atoms: _453  and  _454
REMARK  186  A    between atoms: _453  and  _456
REMARK  187  A    between atoms: _456  and  _457
REMARK  188  A    between atoms: _463  and  _465
REMARK  189  A    between atoms: _465  and  _466
REMARK  190  A    between atoms: _470  and  _471
REMARK  191  A    between atoms: _476  and  _478
REMARK  192  A    between atoms: _478  and  _479
REMARK  193  A    between atoms: _478  and  _481
REMARK  194  A    between atoms: _481  and  _482
REMARK  195  A    between atoms: _485  and  _487
REMARK  196  A    between atoms: _487  and  _488
REMARK  197  A    between atoms: _487  and  _490
REMARK  198  A    between atoms: _490  and  _491
REMARK  199  A    between atoms: _501  and  _503
REMARK  200  A    between atoms: _503  and  _504
REMARK  201  A    between atoms: _503  and  _506
REMARK  202  A    between atoms: _508  and  _510
REMARK  203  A    between atoms: _510  and  _511
REMARK  204  A    between atoms: _510  and  _513
REMARK  205  A    between atoms: _513  and  _514
REMARK  206  A    between atoms: _514  and  _515
REMARK  207  A    between atoms: _518  and  _520
REMARK  208  A    between atoms: _520  and  _521
REMARK  209  A    between atoms: _520  and  _523
REMARK  210  A    between atoms: _523  and  _524
REMARK  211  A    between atoms: _527  and  _529
REMARK  212  A    between atoms: _529  and  _530
REMARK  213  A    between atoms: _529  and  _532
REMARK  214  A    between atoms: _532  and  _533
REMARK  215  A    between atoms: _538  and  _539
REMARK  216  A    between atoms: _541  and  _543
REMARK  217  A    between atoms: _543  and  _544
REMARK  218  A    between atoms: _546  and  _548
REMARK  219  A    between atoms: _548  and  _549
REMARK  220  A    between atoms: _552  and  _554
REMARK  221  A    between atoms: _554  and  _555
REMARK  222  A    between atoms: _554  and  _557
REMARK  223  A    between atoms: _559  and  _561
REMARK  224  A    between atoms: _561  and  _562
REMARK  225  A    between atoms: _561  and  _564
REMARK  226  A    between atoms: _564  and  _565
REMARK  227  A    between atoms: _570  and  _571
REMARK  228  A    between atoms: _573  and  _575
REMARK  229  A    between atoms: _575  and  _576
REMARK  230  A    between atoms: _575  and  _578
REMARK  231  A    between atoms: _578  and  _579
REMARK  232  A    between atoms: _584  and  _586
REMARK  233  A    between atoms: _586  and  _587
REMARK  234  A    between atoms: _586  and  _589
REMARK  235  A    between atoms: _589  and  _590
REMARK  236  A    between atoms: _596  and  _598
REMARK  237  A    between atoms: _598  and  _599
REMARK  238  A    between atoms: _602  and  _604
REMARK  239  A    between atoms: _604  and  _605
REMARK  240  A    between atoms: _607  and  _609
REMARK  241  A    between atoms: _609  and  _610
REMARK  242  A    between atoms: _609  and  _612
REMARK  243  A    between atoms: _612  and  _613
REMARK  244  A    between atoms: _618  and  _619
REMARK  245  A    between atoms: _621  and  _623
REMARK  246  A    between atoms: _623  and  _624
REMARK  247  A    between atoms: _623  and  _626
REMARK  248  A    between atoms: _626  and  _627
REMARK  249  A    between atoms: _629  and  _631
REMARK  250  A    between atoms: _631  and  _632
REMARK  251  A    between atoms: _634  and  _636
REMARK  252  A    between atoms: _636  and  _637
REMARK                            x       y       z     vdW  Elec       q    Type
REMARK                         _______ _______ _______ _____ _____    ______ ____
ROOT
ATOM      1  O   HOH     1      36.895  -6.874 -23.334  0.00  0.00    +0.000 OA
ENDROOT
TORSDOF 0
REMARK  Name = ../refined-set-2016/3hkw/3hkw_pocket.pdb
REMARK  252 active torsions:
REMARK  status: ('A' for Active; 'I' for Inactive)
REMARK    1  A    between atoms: _1  and  _3
REMARK    2  A    between atoms: _3  and  _4
REMARK    3  A    between atoms: _3  and  _6
REMARK    4  A    between atoms: _6  and  _7
REMARK    5  A    between atoms: _7  and  _8
REMARK    6  A    between atoms: _8  and  _9
REMARK    7  A    between atoms: _9  and  _10
REMARK    8  A    between atoms: _14  and  _16
REMARK    9  A    between atoms: _16  and  _17
REMARK   10  A    between atoms: _16  and  _19
REMARK   11  A    between atoms: _19  and  _20
REMARK   12  A    between atoms: _20  and  _21
REMARK   13  A    between atoms: _24  and  _26
REMARK   14  A    between atoms: _26  and  _27
REMARK   15  A    between atoms: _26  and  _29
REMARK   16  A    between atoms: _29  and  _30
REMARK   17  A    between atoms: _30  and  _31
REMARK   18  A    between atoms: _31  and  _32
REMARK   19  A    between atoms: _41  and  _43
REMARK   20  A    between atoms: _43  and  _44
REMARK   21  A    between atoms: _46  and  _48
REMARK   22  A    between atoms: _48  and  _49
REMARK   23  A    between atoms: _48  and  _51
REMARK   24  A    between atoms: _51  and  _52
REMARK   25  A    between atoms: _58  and  _60
REMARK   26  A    between atoms: _60  and  _61
REMARK   27  A    between atoms: _60  and  _63
REMARK   28  A    between atoms: _63  and  _64
REMARK   29  A    between atoms: _69  and  _70
REMARK   30  A    between atoms: _72  and  _74
REMARK   31  A    between atoms: _74  and  _75
REMARK   32  A    between atoms: _74  and  _77
REMARK   33  A    between atoms: _77  and  _78
REMARK   34  A    between atoms: _81  and  _82
REMARK   35  A    between atoms: _87  and  _89
REMARK   36  A    between atoms: _89  and  _90
REMARK   37  A    between atoms: _92  and  _94
REMARK   38  A    between atoms: _94  and  _95
REMARK   39  A    between atoms: _94  and  _97
REMARK   40  A    between atoms: _97  and  _98
REMARK   41  A    between atoms: _98  and  _99
REMARK   42  A    between atoms: _104  and  _106
REMARK   43  A    between atoms: _106  and  _107
REMARK   44  A    between atoms: _106  and  _109
REMARK   45  A    between atoms: _109  and  _110
REMARK   46  A    between atoms: _110  and  _111
REMARK   47  A    between atoms: _111  and  _112
REMARK   48  A    between atoms: _121  and  _123
REMARK   49  A    between atoms: _123  and  _124
REMARK   50  A    between atoms: _123  and  _126
REMARK   51  A    between atoms: _129  and  _131
REMARK   52  A    between atoms: _131  and  _132
REMARK   53  A    between atoms: _131  and  _134
REMARK   54  A    between atoms: _134  and  _135
REMARK   55  A    between atoms: _138  and  _140
REMARK   56  A    between atoms: _140  and  _141
REMARK   57  A    between atoms: _140  and  _143
REMARK   58  A    between atoms: _143  and  _144
REMARK   59  A    between atoms: _147  and  _149
REMARK   60  A    between atoms: _149  and  _150
REMARK   61  A    between atoms: _149  and  _152
REMARK   62  A    between atoms: _152  and  _153
REMARK   63  A    between atoms: _155  and  _157
REMARK   64  A    between atoms: _157  and  _158
REMARK   65  A    between atoms: _157  and  _160
REMARK   66  A    between atoms: _160  and  _161
REMARK   67  A    between atoms: _164  and  _166
REMARK   68  A    between atoms: _166  and  _167
REMARK   69  A    between atoms: _166  and  _169
REMARK   70  A    between atoms: _169  and  _170
REMARK   71  A    between atoms: _172  and  _174
REMARK   72  A    between atoms: _174  and  _175
REMARK   73  A    between atoms: _174  and  _177
REMARK   74  A    between atoms: _177  and  _178
REMARK   75  A    between atoms: _183  and  _185
REMARK   76  A    between atoms: _185  and  _186
REMARK   77  A    between atoms: _185  and  _188
REMARK   78  A    between atoms: _188  and  _189
REMARK   79  A    between atoms: _192  and  _194
REMARK   80  A    between atoms: _194  and  _195
REMARK   81  A    between atoms: _194  and  _197
REMARK   82  A    between atoms: _199  and  _201
REMARK   83  A    between atoms: _201  and  _202
REMARK   84  A    between atoms: _204  and  _206
REMARK   85  A    between atoms: _206  and  _207
REMARK   86  A    between atoms: _206  and  _209
REMARK   87  A    between atoms: _209  and  _210
REMARK   88  A    between atoms: _213  and  _215
REMARK   89  A    between atoms: _215  and  _216
REMARK   90  A    between atoms: _215  and  _218
REMARK   91  A    between atoms: _218  and  _219
REMARK   92  A    between atoms: _222  and  _224
REMARK   93  A    between atoms: _224  and  _225
REMARK   94  A    between atoms: _224  and  _227
REMARK   95  A    between atoms: _227  and  _228
REMARK   96  A    between atoms: _230  and  _232
REMARK   97  A    between atoms: _232  and  _233
REMARK   98  A    between atoms: _232  and  _235
REMARK   99  A    between atoms: _237  and  _239
REMARK  100  A    between atoms: _239  and  _240
REMARK  101  A    between atoms: _239  and  _242
REMARK  102  A    between atoms: _242  and  _243
REMARK  103  A    between atoms: _245  and  _247
REMARK  104  A    between atoms: _247  and  _248
REMARK  105  A    between atoms: _247  and  _250
REMARK  106  A    between atoms: _250  and  _251
REMARK  107  A    between atoms: _253  and  _255
REMARK  108  A    between atoms: _255  and  _256
REMARK  109  A    between atoms: _255  and  _258
REMARK  110  A    between atoms: _258  and  _259
REMARK  111  A    between atoms: _264  and  _266
REMARK  112  A    between atoms: _266  and  _267
REMARK  113  A    between atoms: _266  and  _269
REMARK  114  A    between atoms: _269  and  _270
REMARK  115  A    between atoms: _275  and  _276
REMARK  116  A    between atoms: _278  and  _280
REMARK  117  A    between atoms: _280  and  _281
REMARK  118  A    between atoms: _280  and  _283
REMARK  119  A    between atoms: _283  and  _284
REMARK  120  A    between atoms: _287  and  _289
REMARK  121  A    between atoms: _289  and  _290
REMARK  122  A    between atoms: _289  and  _292
REMARK  123  A    between atoms: _292  and  _293
REMARK  124  A    between atoms: _296  and  _298
REMARK  125  A    between atoms: _298  and  _299
REMARK  126  A    between atoms: _298  and  _301
REMARK  127  A    between atoms: _301  and  _302
REMARK  128  A    between atoms: _302  and  _303
REMARK  129  A    between atoms: _303  and  _304
REMARK  130  A    between atoms: _313  and  _315
REMARK  131  A    between atoms: _315  and  _316
REMARK  132  A    between atoms: _315  and  _318
REMARK  133  A    between atoms: _318  and  _319
REMARK  134  A    between atoms: _323  and  _324
REMARK  135  A    between atoms: _329  and  _331
REMARK  136  A    between atoms: _331  and  _332
REMARK  137  A    between atoms: _331  and  _334
REMARK  138  A    between atoms: _334  and  _335
REMARK  139  A    between atoms: _335  and  _336
REMARK  140  A    between atoms: _336  and  _337
REMARK  141  A    between atoms: _346  and  _348
REMARK  142  A    between atoms: _348  and  _349
REMARK  143  A    between atoms: _348  and  _351
REMARK  144  A    between atoms: _351  and  _352
REMARK  145  A    between atoms: _352  and  _353
REMARK  146  A    between atoms: _356  and  _358
REMARK  147  A    between atoms: _358  and  _359
REMARK  148  A    between atoms: _358  and  _361
REMARK  149  A    between atoms: _364  and  _366
REMARK  150  A    between atoms: _366  and  _367
REMARK  151  A    between atoms: _366  and  _369
REMARK  152  A    between atoms: _369  and  _370
REMARK  153  A    between atoms: _375  and  _377
REMARK  154  A    between atoms: _377  and  _378
REMARK  155  A    between atoms: _377  and  _380
REMARK  156  A    between atoms: _380  and  _381
REMARK  157  A    between atoms: _383  and  _385
REMARK  158  A    between atoms: _385  and  _386
REMARK  159  A    between atoms: _385  and  _388
REMARK  160  A    between atoms: _388  and  _389
REMARK  161  A    between atoms: _399  and  _401
REMARK  162  A    between atoms: _401  and  _402
REMARK  163  A    between atoms: _401  and  _404
REMARK  164  A    between atoms: _404  and  _405
REMARK  165  A    between atoms: _408  and  _410
REMARK  166  A    between atoms: _410  and  _411
REMARK  167  A    between atoms: _413  and  _415
REMARK  168  A    between atoms: _415  and  _416
REMARK  169  A    between atoms: _415  and  _418
REMARK  170  A    between atoms: _418  and  _419
REMARK  171  A    between atoms: _424  and  _426
REMARK  172  A    between atoms: _426  and  _427
REMARK  173  A    between atoms: _426  and  _429
REMARK  174  A    between atoms: _429  and  _430
REMARK  175  A    between atoms: _433  and  _435
REMARK  176  A    between atoms: _435  and  _436
REMARK  177  A    between atoms: _435  and  _438
REMARK  178  A    between atoms: _438  and  _439
REMARK  179  A    between atoms: _442  and  _444
REMARK  180  A    between atoms: _444  and  _445
REMARK  181  A    between atoms: _444  and  _447
REMARK  182  A    between atoms: _447  and  _448
REMARK  183  A    between atoms: _448  and  _449
REMARK  184  A    between atoms: _451  and  _453
REMARK  185  A    between atoms: _453  and  _454
REMARK  186  A    between atoms: _453  and  _456
REMARK  187  A    between atoms: _456  and  _457
REMARK  188  A    between atoms: _463  and  _465
REMARK  189  A    between atoms: _465  and  _466
REMARK  190  A    between atoms: _470  and  _471
REMARK  191  A    between atoms: _476  and  _478
REMARK  192  A    between atoms: _478  and  _479
REMARK  193  A    between atoms: _478  and  _481
REMARK  194  A    between atoms: _481  and  _482
REMARK  195  A    between atoms: _485  and  _487
REMARK  196  A    between atoms: _487  and  _488
REMARK  197  A    between atoms: _487  and  _490
REMARK  198  A    between atoms: _490  and  _491
REMARK  199  A    between atoms: _501  and  _503
REMARK  200  A    between atoms: _503  and  _504
REMARK  201  A    between atoms: _503  and  _506
REMARK  202  A    between atoms: _508  and  _510
REMARK  203  A    between atoms: _510  and  _511
REMARK  204  A    between atoms: _510  and  _513
REMARK  205  A    between atoms: _513  and  _514
REMARK  206  A    between atoms: _514  and  _515
REMARK  207  A    between atoms: _518  and  _520
REMARK  208  A    between atoms: _520  and  _521
REMARK  209  A    between atoms: _520  and  _523
REMARK  210  A    between atoms: _523  and  _524
REMARK  211  A    between atoms: _527  and  _529
REMARK  212  A    between atoms: _529  and  _530
REMARK  213  A    between atoms: _529  and  _532
REMARK  214  A    between atoms: _532  and  _533
REMARK  215  A    between atoms: _538  and  _539
REMARK  216  A    between atoms: _541  and  _543
REMARK  217  A    between atoms: _543  and  _544
REMARK  218  A    between atoms: _546  and  _548
REMARK  219  A    between atoms: _548  and  _549
REMARK  220  A    between atoms: _552  and  _554
REMARK  221  A    between atoms: _554  and  _555
REMARK  222  A    between atoms: _554  and  _557
REMARK  223  A    between atoms: _559  and  _561
REMARK  224  A    between atoms: _561  and  _562
REMARK  225  A    between atoms: _561  and  _564
REMARK  226  A    between atoms: _564  and  _565
REMARK  227  A    between atoms: _570  and  _571
REMARK  228  A    between atoms: _573  and  _575
REMARK  229  A    between atoms: _575  and  _576
REMARK  230  A    between atoms: _575  and  _578
REMARK  231  A    between atoms: _578  and  _579
REMARK  232  A    between atoms: _584  and  _586
REMARK  233  A    between atoms: _586  and  _587
REMARK  234  A    between atoms: _586  and  _589
REMARK  235  A    between atoms: _589  and  _590
REMARK  236  A    between atoms: _596  and  _598
REMARK  237  A    between atoms: _598  and  _599
REMARK  238  A    between atoms: _602  and  _604
REMARK  239  A    between atoms: _604  and  _605
REMARK  240  A    between atoms: _607  and  _609
REMARK  241  A    between atoms: _609  and  _610
REMARK  242  A    between atoms: _609  and  _612
REMARK  243  A    between atoms: _612  and  _613
REMARK  244  A    between atoms: _618  and  _619
REMARK  245  A    between atoms: _621  and  _623
REMARK  246  A    between atoms: _623  and  _624
REMARK  247  A    between atoms: _623  and  _626
REMARK  248  A    between atoms: _626  and  _627
REMARK  249  A    between atoms: _629  and  _631
REMARK  250  A    between atoms: _631  and  _632
REMARK  251  A    between atoms: _634  and  _636
REMARK  252  A    between atoms: _636  and  _637
REMARK                            x       y       z     vdW  Elec       q    Type
REMARK                         _______ _______ _______ _____ _____    ______ ____
ROOT
ATOM      1  O   HOH     1      47.473  -1.074 -15.103  0.00  0.00    +0.000 OA
ENDROOT
TORSDOF 0
REMARK  Name = ../refined-set-2016/3hkw/3hkw_pocket.pdb
REMARK  252 active torsions:
REMARK  status: ('A' for Active; 'I' for Inactive)
REMARK    1  A    between atoms: _1  and  _3
REMARK    2  A    between atoms: _3  and  _4
REMARK    3  A    between atoms: _3  and  _6
REMARK    4  A    between atoms: _6  and  _7
REMARK    5  A    between atoms: _7  and  _8
REMARK    6  A    between atoms: _8  and  _9
REMARK    7  A    between atoms: _9  and  _10
REMARK    8  A    between atoms: _14  and  _16
REMARK    9  A    between atoms: _16  and  _17
REMARK   10  A    between atoms: _16  and  _19
REMARK   11  A    between atoms: _19  and  _20
REMARK   12  A    between atoms: _20  and  _21
REMARK   13  A    between atoms: _24  and  _26
REMARK   14  A    between atoms: _26  and  _27
REMARK   15  A    between atoms: _26  and  _29
REMARK   16  A    between atoms: _29  and  _30
REMARK   17  A    between atoms: _30  and  _31
REMARK   18  A    between atoms: _31  and  _32
REMARK   19  A    between atoms: _41  and  _43
REMARK   20  A    between atoms: _43  and  _44
REMARK   21  A    between atoms: _46  and  _48
REMARK   22  A    between atoms: _48  and  _49
REMARK   23  A    between atoms: _48  and  _51
REMARK   24  A    between atoms: _51  and  _52
REMARK   25  A    between atoms: _58  and  _60
REMARK   26  A    between atoms: _60  and  _61
REMARK   27  A    between atoms: _60  and  _63
REMARK   28  A    between atoms: _63  and  _64
REMARK   29  A    between atoms: _69  and  _70
REMARK   30  A    between atoms: _72  and  _74
REMARK   31  A    between atoms: _74  and  _75
REMARK   32  A    between atoms: _74  and  _77
REMARK   33  A    between atoms: _77  and  _78
REMARK   34  A    between atoms: _81  and  _82
REMARK   35  A    between atoms: _87  and  _89
REMARK   36  A    between atoms: _89  and  _90
REMARK   37  A    between atoms: _92  and  _94
REMARK   38  A    between atoms: _94  and  _95
REMARK   39  A    between atoms: _94  and  _97
REMARK   40  A    between atoms: _97  and  _98
REMARK   41  A    between atoms: _98  and  _99
REMARK   42  A    between atoms: _104  and  _106
REMARK   43  A    between atoms: _106  and  _107
REMARK   44  A    between atoms: _106  and  _109
REMARK   45  A    between atoms: _109  and  _110
REMARK   46  A    between atoms: _110  and  _111
REMARK   47  A    between atoms: _111  and  _112
REMARK   48  A    between atoms: _121  and  _123
REMARK   49  A    between atoms: _123  and  _124
REMARK   50  A    between atoms: _123  and  _126
REMARK   51  A    between atoms: _129  and  _131
REMARK   52  A    between atoms: _131  and  _132
REMARK   53  A    between atoms: _131  and  _134
REMARK   54  A    between atoms: _134  and  _135
REMARK   55  A    between atoms: _138  and  _140
REMARK   56  A    between atoms: _140  and  _141
REMARK   57  A    between atoms: _140  and  _143
REMARK   58  A    between atoms: _143  and  _144
REMARK   59  A    between atoms: _147  and  _149
REMARK   60  A    between atoms: _149  and  _150
REMARK   61  A    between atoms: _149  and  _152
REMARK   62  A    between atoms: _152  and  _153
REMARK   63  A    between atoms: _155  and  _157
REMARK   64  A    between atoms: _157  and  _158
REMARK   65  A    between atoms: _157  and  _160
REMARK   66  A    between atoms: _160  and  _161
REMARK   67  A    between atoms: _164  and  _166
REMARK   68  A    between atoms: _166  and  _167
REMARK   69  A    between atoms: _166  and  _169
REMARK   70  A    between atoms: _169  and  _170
REMARK   71  A    between atoms: _172  and  _174
REMARK   72  A    between atoms: _174  and  _175
REMARK   73  A    between atoms: _174  and  _177
REMARK   74  A    between atoms: _177  and  _178
REMARK   75  A    between atoms: _183  and  _185
REMARK   76  A    between atoms: _185  and  _186
REMARK   77  A    between atoms: _185  and  _188
REMARK   78  A    between atoms: _188  and  _189
REMARK   79  A    between atoms: _192  and  _194
REMARK   80  A    between atoms: _194  and  _195
REMARK   81  A    between atoms: _194  and  _197
REMARK   82  A    between atoms: _199  and  _201
REMARK   83  A    between atoms: _201  and  _202
REMARK   84  A    between atoms: _204  and  _206
REMARK   85  A    between atoms: _206  and  _207
REMARK   86  A    between atoms: _206  and  _209
REMARK   87  A    between atoms: _209  and  _210
REMARK   88  A    between atoms: _213  and  _215
REMARK   89  A    between atoms: _215  and  _216
REMARK   90  A    between atoms: _215  and  _218
REMARK   91  A    between atoms: _218  and  _219
REMARK   92  A    between atoms: _222  and  _224
REMARK   93  A    between atoms: _224  and  _225
REMARK   94  A    between atoms: _224  and  _227
REMARK   95  A    between atoms: _227  and  _228
REMARK   96  A    between atoms: _230  and  _232
REMARK   97  A    between atoms: _232  and  _233
REMARK   98  A    between atoms: _232  and  _235
REMARK   99  A    between atoms: _237  and  _239
REMARK  100  A    between atoms: _239  and  _240
REMARK  101  A    between atoms: _239  and  _242
REMARK  102  A    between atoms: _242  and  _243
REMARK  103  A    between atoms: _245  and  _247
REMARK  104  A    between atoms: _247  and  _248
REMARK  105  A    between atoms: _247  and  _250
REMARK  106  A    between atoms: _250  and  _251
REMARK  107  A    between atoms: _253  and  _255
REMARK  108  A    between atoms: _255  and  _256
REMARK  109  A    between atoms: _255  and  _258
REMARK  110  A    between atoms: _258  and  _259
REMARK  111  A    between atoms: _264  and  _266
REMARK  112  A    between atoms: _266  and  _267
REMARK  113  A    between atoms: _266  and  _269
REMARK  114  A    between atoms: _269  and  _270
REMARK  115  A    between atoms: _275  and  _276
REMARK  116  A    between atoms: _278  and  _280
REMARK  117  A    between atoms: _280  and  _281
REMARK  118  A    between atoms: _280  and  _283
REMARK  119  A    between atoms: _283  and  _284
REMARK  120  A    between atoms: _287  and  _289
REMARK  121  A    between atoms: _289  and  _290
REMARK  122  A    between atoms: _289  and  _292
REMARK  123  A    between atoms: _292  and  _293
REMARK  124  A    between atoms: _296  and  _298
REMARK  125  A    between atoms: _298  and  _299
REMARK  126  A    between atoms: _298  and  _301
REMARK  127  A    between atoms: _301  and  _302
REMARK  128  A    between atoms: _302  and  _303
REMARK  129  A    between atoms: _303  and  _304
REMARK  130  A    between atoms: _313  and  _315
REMARK  131  A    between atoms: _315  and  _316
REMARK  132  A    between atoms: _315  and  _318
REMARK  133  A    between atoms: _318  and  _319
REMARK  134  A    between atoms: _323  and  _324
REMARK  135  A    between atoms: _329  and  _331
REMARK  136  A    between atoms: _331  and  _332
REMARK  137  A    between atoms: _331  and  _334
REMARK  138  A    between atoms: _334  and  _335
REMARK  139  A    between atoms: _335  and  _336
REMARK  140  A    between atoms: _336  and  _337
REMARK  141  A    between atoms: _346  and  _348
REMARK  142  A    between atoms: _348  and  _349
REMARK  143  A    between atoms: _348  and  _351
REMARK  144  A    between atoms: _351  and  _352
REMARK  145  A    between atoms: _352  and  _353
REMARK  146  A    between atoms: _356  and  _358
REMARK  147  A    between atoms: _358  and  _359
REMARK  148  A    between atoms: _358  and  _361
REMARK  149  A    between atoms: _364  and  _366
REMARK  150  A    between atoms: _366  and  _367
REMARK  151  A    between atoms: _366  and  _369
REMARK  152  A    between atoms: _369  and  _370
REMARK  153  A    between atoms: _375  and  _377
REMARK  154  A    between atoms: _377  and  _378
REMARK  155  A    between atoms: _377  and  _380
REMARK  156  A    between atoms: _380  and  _381
REMARK  157  A    between atoms: _383  and  _385
REMARK  158  A    between atoms: _385  and  _386
REMARK  159  A    between atoms: _385  and  _388
REMARK  160  A    between atoms: _388  and  _389
REMARK  161  A    between atoms: _399  and  _401
REMARK  162  A    between atoms: _401  and  _402
REMARK  163  A    between atoms: _401  and  _404
REMARK  164  A    between atoms: _404  and  _405
REMARK  165  A    between atoms: _408  and  _410
REMARK  166  A    between atoms: _410  and  _411
REMARK  167  A    between atoms: _413  and  _415
REMARK  168  A    between atoms: _415  and  _416
REMARK  169  A    between atoms: _415  and  _418
REMARK  170  A    between atoms: _418  and  _419
REMARK  171  A    between atoms: _424  and  _426
REMARK  172  A    between atoms: _426  and  _427
REMARK  173  A    between atoms: _426  and  _429
REMARK  174  A    between atoms: _429  and  _430
REMARK  175  A    between atoms: _433  and  _435
REMARK  176  A    between atoms: _435  and  _436
REMARK  177  A    between atoms: _435  and  _438
REMARK  178  A    between atoms: _438  and  _439
REMARK  179  A    between atoms: _442  and  _444
REMARK  180  A    between atoms: _444  and  _445
REMARK  181  A    between atoms: _444  and  _447
REMARK  182  A    between atoms: _447  and  _448
REMARK  183  A    between atoms: _448  and  _449
REMARK  184  A    between atoms: _451  and  _453
REMARK  185  A    between atoms: _453  and  _454
REMARK  186  A    between atoms: _453  and  _456
REMARK  187  A    between atoms: _456  and  _457
REMARK  188  A    between atoms: _463  and  _465
REMARK  189  A    between atoms: _465  and  _466
REMARK  190  A    between atoms: _470  and  _471
REMARK  191  A    between atoms: _476  and  _478
REMARK  192  A    between atoms: _478  and  _479
REMARK  193  A    between atoms: _478  and  _481
REMARK  194  A    between atoms: _481  and  _482
REMARK  195  A    between atoms: _485  and  _487
REMARK  196  A    between atoms: _487  and  _488
REMARK  197  A    between atoms: _487  and  _490
REMARK  198  A    between atoms: _490  and  _491
REMARK  199  A    between atoms: _501  and  _503
REMARK  200  A    between atoms: _503  and  _504
REMARK  201  A    between atoms: _503  and  _506
REMARK  202  A    between atoms: _508  and  _510
REMARK  203  A    between atoms: _510  and  _511
REMARK  204  A    between atoms: _510  and  _513
REMARK  205  A    between atoms: _513  and  _514
REMARK  206  A    between atoms: _514  and  _515
REMARK  207  A    between atoms: _518  and  _520
REMARK  208  A    between atoms: _520  and  _521
REMARK  209  A    between atoms: _520  and  _523
REMARK  210  A    between atoms: _523  and  _524
REMARK  211  A    between atoms: _527  and  _529
REMARK  212  A    between atoms: _529  and  _530
REMARK  213  A    between atoms: _529  and  _532
REMARK  214  A    between atoms: _532  and  _533
REMARK  215  A    between atoms: _538  and  _539
REMARK  216  A    between atoms: _541  and  _543
REMARK  217  A    between atoms: _543  and  _544
REMARK  218  A    between atoms: _546  and  _548
REMARK  219  A    between atoms: _548  and  _549
REMARK  220  A    between atoms: _552  and  _554
REMARK  221  A    between atoms: _554  and  _555
REMARK  222  A    between atoms: _554  and  _557
REMARK  223  A    between atoms: _559  and  _561
REMARK  224  A    between atoms: _561  and  _562
REMARK  225  A    between atoms: _561  and  _564
REMARK  226  A    between atoms: _564  and  _565
REMARK  227  A    between atoms: _570  and  _571
REMARK  228  A    between atoms: _573  and  _575
REMARK  229  A    between atoms: _575  and  _576
REMARK  230  A    between atoms: _575  and  _578
REMARK  231  A    between atoms: _578  and  _579
REMARK  232  A    between atoms: _584  and  _586
REMARK  233  A    between atoms: _586  and  _587
REMARK  234  A    between atoms: _586  and  _589
REMARK  235  A    between atoms: _589  and  _590
REMARK  236  A    between atoms: _596  and  _598
REMARK  237  A    between atoms: _598  and  _599
REMARK  238  A    between atoms: _602  and  _604
REMARK  239  A    between atoms: _604  and  _605
REMARK  240  A    between atoms: _607  and  _609
REMARK  241  A    between atoms: _609  and  _610
REMARK  242  A    between atoms: _609  and  _612
REMARK  243  A    between atoms: _612  and  _613
REMARK  244  A    between atoms: _618  and  _619
REMARK  245  A    between atoms: _621  and  _623
REMARK  246  A    between atoms: _623  and  _624
REMARK  247  A    between atoms: _623  and  _626
REMARK  248  A    between atoms: _626  and  _627
REMARK  249  A    between atoms: _629  and  _631
REMARK  250  A    between atoms: _631  and  _632
REMARK  251  A    between atoms: _634  and  _636
REMARK  252  A    between atoms: _636  and  _637
REMARK                            x       y       z     vdW  Elec       q    Type
REMARK                         _______ _______ _______ _____ _____    ______ ____
ROOT
ATOM      1  O   HOH     1      44.511   2.273 -14.567  0.00  0.00    +0.000 OA
ENDROOT
TORSDOF 0
REMARK  Name = ../refined-set-2016/3hkw/3hkw_pocket.pdb
REMARK  252 active torsions:
REMARK  status: ('A' for Active; 'I' for Inactive)
REMARK    1  A    between atoms: _1  and  _3
REMARK    2  A    between atoms: _3  and  _4
REMARK    3  A    between atoms: _3  and  _6
REMARK    4  A    between atoms: _6  and  _7
REMARK    5  A    between atoms: _7  and  _8
REMARK    6  A    between atoms: _8  and  _9
REMARK    7  A    between atoms: _9  and  _10
REMARK    8  A    between atoms: _14  and  _16
REMARK    9  A    between atoms: _16  and  _17
REMARK   10  A    between atoms: _16  and  _19
REMARK   11  A    between atoms: _19  and  _20
REMARK   12  A    between atoms: _20  and  _21
REMARK   13  A    between atoms: _24  and  _26
REMARK   14  A    between atoms: _26  and  _27
REMARK   15  A    between atoms: _26  and  _29
REMARK   16  A    between atoms: _29  and  _30
REMARK   17  A    between atoms: _30  and  _31
REMARK   18  A    between atoms: _31  and  _32
REMARK   19  A    between atoms: _41  and  _43
REMARK   20  A    between atoms: _43  and  _44
REMARK   21  A    between atoms: _46  and  _48
REMARK   22  A    between atoms: _48  and  _49
REMARK   23  A    between atoms: _48  and  _51
REMARK   24  A    between atoms: _51  and  _52
REMARK   25  A    between atoms: _58  and  _60
REMARK   26  A    between atoms: _60  and  _61
REMARK   27  A    between atoms: _60  and  _63
REMARK   28  A    between atoms: _63  and  _64
REMARK   29  A    between atoms: _69  and  _70
REMARK   30  A    between atoms: _72  and  _74
REMARK   31  A    between atoms: _74  and  _75
REMARK   32  A    between atoms: _74  and  _77
REMARK   33  A    between atoms: _77  and  _78
REMARK   34  A    between atoms: _81  and  _82
REMARK   35  A    between atoms: _87  and  _89
REMARK   36  A    between atoms: _89  and  _90
REMARK   37  A    between atoms: _92  and  _94
REMARK   38  A    between atoms: _94  and  _95
REMARK   39  A    between atoms: _94  and  _97
REMARK   40  A    between atoms: _97  and  _98
REMARK   41  A    between atoms: _98  and  _99
REMARK   42  A    between atoms: _104  and  _106
REMARK   43  A    between atoms: _106  and  _107
REMARK   44  A    between atoms: _106  and  _109
REMARK   45  A    between atoms: _109  and  _110
REMARK   46  A    between atoms: _110  and  _111
REMARK   47  A    between atoms: _111  and  _112
REMARK   48  A    between atoms: _121  and  _123
REMARK   49  A    between atoms: _123  and  _124
REMARK   50  A    between atoms: _123  and  _126
REMARK   51  A    between atoms: _129  and  _131
REMARK   52  A    between atoms: _131  and  _132
REMARK   53  A    between atoms: _131  and  _134
REMARK   54  A    between atoms: _134  and  _135
REMARK   55  A    between atoms: _138  and  _140
REMARK   56  A    between atoms: _140  and  _141
REMARK   57  A    between atoms: _140  and  _143
REMARK   58  A    between atoms: _143  and  _144
REMARK   59  A    between atoms: _147  and  _149
REMARK   60  A    between atoms: _149  and  _150
REMARK   61  A    between atoms: _149  and  _152
REMARK   62  A    between atoms: _152  and  _153
REMARK   63  A    between atoms: _155  and  _157
REMARK   64  A    between atoms: _157  and  _158
REMARK   65  A    between atoms: _157  and  _160
REMARK   66  A    between atoms: _160  and  _161
REMARK   67  A    between atoms: _164  and  _166
REMARK   68  A    between atoms: _166  and  _167
REMARK   69  A    between atoms: _166  and  _169
REMARK   70  A    between atoms: _169  and  _170
REMARK   71  A    between atoms: _172  and  _174
REMARK   72  A    between atoms: _174  and  _175
REMARK   73  A    between atoms: _174  and  _177
REMARK   74  A    between atoms: _177  and  _178
REMARK   75  A    between atoms: _183  and  _185
REMARK   76  A    between atoms: _185  and  _186
REMARK   77  A    between atoms: _185  and  _188
REMARK   78  A    between atoms: _188  and  _189
REMARK   79  A    between atoms: _192  and  _194
REMARK   80  A    between atoms: _194  and  _195
REMARK   81  A    between atoms: _194  and  _197
REMARK   82  A    between atoms: _199  and  _201
REMARK   83  A    between atoms: _201  and  _202
REMARK   84  A    between atoms: _204  and  _206
REMARK   85  A    between atoms: _206  and  _207
REMARK   86  A    between atoms: _206  and  _209
REMARK   87  A    between atoms: _209  and  _210
REMARK   88  A    between atoms: _213  and  _215
REMARK   89  A    between atoms: _215  and  _216
REMARK   90  A    between atoms: _215  and  _218
REMARK   91  A    between atoms: _218  and  _219
REMARK   92  A    between atoms: _222  and  _224
REMARK   93  A    between atoms: _224  and  _225
REMARK   94  A    between atoms: _224  and  _227
REMARK   95  A    between atoms: _227  and  _228
REMARK   96  A    between atoms: _230  and  _232
REMARK   97  A    between atoms: _232  and  _233
REMARK   98  A    between atoms: _232  and  _235
REMARK   99  A    between atoms: _237  and  _239
REMARK  100  A    between atoms: _239  and  _240
REMARK  101  A    between atoms: _239  and  _242
REMARK  102  A    between atoms: _242  and  _243
REMARK  103  A    between atoms: _245  and  _247
REMARK  104  A    between atoms: _247  and  _248
REMARK  105  A    between atoms: _247  and  _250
REMARK  106  A    between atoms: _250  and  _251
REMARK  107  A    between atoms: _253  and  _255
REMARK  108  A    between atoms: _255  and  _256
REMARK  109  A    between atoms: _255  and  _258
REMARK  110  A    between atoms: _258  and  _259
REMARK  111  A    between atoms: _264  and  _266
REMARK  112  A    between atoms: _266  and  _267
REMARK  113  A    between atoms: _266  and  _269
REMARK  114  A    between atoms: _269  and  _270
REMARK  115  A    between atoms: _275  and  _276
REMARK  116  A    between atoms: _278  and  _280
REMARK  117  A    between atoms: _280  and  _281
REMARK  118  A    between atoms: _280  and  _283
REMARK  119  A    between atoms: _283  and  _284
REMARK  120  A    between atoms: _287  and  _289
REMARK  121  A    between atoms: _289  and  _290
REMARK  122  A    between atoms: _289  and  _292
REMARK  123  A    between atoms: _292  and  _293
REMARK  124  A    between atoms: _296  and  _298
REMARK  125  A    between atoms: _298  and  _299
REMARK  126  A    between atoms: _298  and  _301
REMARK  127  A    between atoms: _301  and  _302
REMARK  128  A    between atoms: _302  and  _303
REMARK  129  A    between atoms: _303  and  _304
REMARK  130  A    between atoms: _313  and  _315
REMARK  131  A    between atoms: _315  and  _316
REMARK  132  A    between atoms: _315  and  _318
REMARK  133  A    between atoms: _318  and  _319
REMARK  134  A    between atoms: _323  and  _324
REMARK  135  A    between atoms: _329  and  _331
REMARK  136  A    between atoms: _331  and  _332
REMARK  137  A    between atoms: _331  and  _334
REMARK  138  A    between atoms: _334  and  _335
REMARK  139  A    between atoms: _335  and  _336
REMARK  140  A    between atoms: _336  and  _337
REMARK  141  A    between atoms: _346  and  _348
REMARK  142  A    between atoms: _348  and  _349
REMARK  143  A    between atoms: _348  and  _351
REMARK  144  A    between atoms: _351  and  _352
REMARK  145  A    between atoms: _352  and  _353
REMARK  146  A    between atoms: _356  and  _358
REMARK  147  A    between atoms: _358  and  _359
REMARK  148  A    between atoms: _358  and  _361
REMARK  149  A    between atoms: _364  and  _366
REMARK  150  A    between atoms: _366  and  _367
REMARK  151  A    between atoms: _366  and  _369
REMARK  152  A    between atoms: _369  and  _370
REMARK  153  A    between atoms: _375  and  _377
REMARK  154  A    between atoms: _377  and  _378
REMARK  155  A    between atoms: _377  and  _380
REMARK  156  A    between atoms: _380  and  _381
REMARK  157  A    between atoms: _383  and  _385
REMARK  158  A    between atoms: _385  and  _386
REMARK  159  A    between atoms: _385  and  _388
REMARK  160  A    between atoms: _388  and  _389
REMARK  161  A    between atoms: _399  and  _401
REMARK  162  A    between atoms: _401  and  _402
REMARK  163  A    between atoms: _401  and  _404
REMARK  164  A    between atoms: _404  and  _405
REMARK  165  A    between atoms: _408  and  _410
REMARK  166  A    between atoms: _410  and  _411
REMARK  167  A    between atoms: _413  and  _415
REMARK  168  A    between atoms: _415  and  _416
REMARK  169  A    between atoms: _415  and  _418
REMARK  170  A    between atoms: _418  and  _419
REMARK  171  A    between atoms: _424  and  _426
REMARK  172  A    between atoms: _426  and  _427
REMARK  173  A    between atoms: _426  and  _429
REMARK  174  A    between atoms: _429  and  _430
REMARK  175  A    between atoms: _433  and  _435
REMARK  176  A    between atoms: _435  and  _436
REMARK  177  A    between atoms: _435  and  _438
REMARK  178  A    between atoms: _438  and  _439
REMARK  179  A    between atoms: _442  and  _444
REMARK  180  A    between atoms: _444  and  _445
REMARK  181  A    between atoms: _444  and  _447
REMARK  182  A    between atoms: _447  and  _448
REMARK  183  A    between atoms: _448  and  _449
REMARK  184  A    between atoms: _451  and  _453
REMARK  185  A    between atoms: _453  and  _454
REMARK  186  A    between atoms: _453  and  _456
REMARK  187  A    between atoms: _456  and  _457
REMARK  188  A    between atoms: _463  and  _465
REMARK  189  A    between atoms: _465  and  _466
REMARK  190  A    between atoms: _470  and  _471
REMARK  191  A    between atoms: _476  and  _478
REMARK  192  A    between atoms: _478  and  _479
REMARK  193  A    between atoms: _478  and  _481
REMARK  194  A    between atoms: _481  and  _482
REMARK  195  A    between atoms: _485  and  _487
REMARK  196  A    between atoms: _487  and  _488
REMARK  197  A    between atoms: _487  and  _490
REMARK  198  A    between atoms: _490  and  _491
REMARK  199  A    between atoms: _501  and  _503
REMARK  200  A    between atoms: _503  and  _504
REMARK  201  A    between atoms: _503  and  _506
REMARK  202  A    between atoms: _508  and  _510
REMARK  203  A    between atoms: _510  and  _511
REMARK  204  A    between atoms: _510  and  _513
REMARK  205  A    between atoms: _513  and  _514
REMARK  206  A    between atoms: _514  and  _515
REMARK  207  A    between atoms: _518  and  _520
REMARK  208  A    between atoms: _520  and  _521
REMARK  209  A    between atoms: _520  and  _523
REMARK  210  A    between atoms: _523  and  _524
REMARK  211  A    between atoms: _527  and  _529
REMARK  212  A    between atoms: _529  and  _530
REMARK  213  A    between atoms: _529  and  _532
REMARK  214  A    between atoms: _532  and  _533
REMARK  215  A    between atoms: _538  and  _539
REMARK  216  A    between atoms: _541  and  _543
REMARK  217  A    between atoms: _543  and  _544
REMARK  218  A    between atoms: _546  and  _548
REMARK  219  A    between atoms: _548  and  _549
REMARK  220  A    between atoms: _552  and  _554
REMARK  221  A    between atoms: _554  and  _555
REMARK  222  A    between atoms: _554  and  _557
REMARK  223  A    between atoms: _559  and  _561
REMARK  224  A    between atoms: _561  and  _562
REMARK  225  A    between atoms: _561  and  _564
REMARK  226  A    between atoms: _564  and  _565
REMARK  227  A    between atoms: _570  and  _571
REMARK  228  A    between atoms: _573  and  _575
REMARK  229  A    between atoms: _575  and  _576
REMARK  230  A    between atoms: _575  and  _578
REMARK  231  A    between atoms: _578  and  _579
REMARK  232  A    between atoms: _584  and  _586
REMARK  233  A    between atoms: _586  and  _587
REMARK  234  A    between atoms: _586  and  _589
REMARK  235  A    between atoms: _589  and  _590
REMARK  236  A    between atoms: _596  and  _598
REMARK  237  A    between atoms: _598  and  _599
REMARK  238  A    between atoms: _602  and  _604
REMARK  239  A    between atoms: _604  and  _605
REMARK  240  A    between atoms: _607  and  _609
REMARK  241  A    between atoms: _609  and  _610
REMARK  242  A    between atoms: _609  and  _612
REMARK  243  A    between atoms: _612  and  _613
REMARK  244  A    between atoms: _618  and  _619
REMARK  245  A    between atoms: _621  and  _623
REMARK  246  A    between atoms: _623  and  _624
REMARK  247  A    between atoms: _623  and  _626
REMARK  248  A    between atoms: _626  and  _627
REMARK  249  A    between atoms: _629  and  _631
REMARK  250  A    between atoms: _631  and  _632
REMARK  251  A    between atoms: _634  and  _636
REMARK  252  A    between atoms: _636  and  _637
REMARK                            x       y       z     vdW  Elec       q    Type
REMARK                         _______ _______ _______ _____ _____    ______ ____
ROOT
ATOM      1  O   HOH     1      35.968  -3.340 -20.004  0.00  0.00    +0.000 OA
ENDROOT
TORSDOF 0
REMARK  Name = ../refined-set-2016/3hkw/3hkw_pocket.pdb
REMARK  252 active torsions:
REMARK  status: ('A' for Active; 'I' for Inactive)
REMARK    1  A    between atoms: _1  and  _3
REMARK    2  A    between atoms: _3  and  _4
REMARK    3  A    between atoms: _3  and  _6
REMARK    4  A    between atoms: _6  and  _7
REMARK    5  A    between atoms: _7  and  _8
REMARK    6  A    between atoms: _8  and  _9
REMARK    7  A    between atoms: _9  and  _10
REMARK    8  A    between atoms: _14  and  _16
REMARK    9  A    between atoms: _16  and  _17
REMARK   10  A    between atoms: _16  and  _19
REMARK   11  A    between atoms: _19  and  _20
REMARK   12  A    between atoms: _20  and  _21
REMARK   13  A    between atoms: _24  and  _26
REMARK   14  A    between atoms: _26  and  _27
REMARK   15  A    between atoms: _26  and  _29
REMARK   16  A    between atoms: _29  and  _30
REMARK   17  A    between atoms: _30  and  _31
REMARK   18  A    between atoms: _31  and  _32
REMARK   19  A    between atoms: _41  and  _43
REMARK   20  A    between atoms: _43  and  _44
REMARK   21  A    between atoms: _46  and  _48
REMARK   22  A    between atoms: _48  and  _49
REMARK   23  A    between atoms: _48  and  _51
REMARK   24  A    between atoms: _51  and  _52
REMARK   25  A    between atoms: _58  and  _60
REMARK   26  A    between atoms: _60  and  _61
REMARK   27  A    between atoms: _60  and  _63
REMARK   28  A    between atoms: _63  and  _64
REMARK   29  A    between atoms: _69  and  _70
REMARK   30  A    between atoms: _72  and  _74
REMARK   31  A    between atoms: _74  and  _75
REMARK   32  A    between atoms: _74  and  _77
REMARK   33  A    between atoms: _77  and  _78
REMARK   34  A    between atoms: _81  and  _82
REMARK   35  A    between atoms: _87  and  _89
REMARK   36  A    between atoms: _89  and  _90
REMARK   37  A    between atoms: _92  and  _94
REMARK   38  A    between atoms: _94  and  _95
REMARK   39  A    between atoms: _94  and  _97
REMARK   40  A    between atoms: _97  and  _98
REMARK   41  A    between atoms: _98  and  _99
REMARK   42  A    between atoms: _104  and  _106
REMARK   43  A    between atoms: _106  and  _107
REMARK   44  A    between atoms: _106  and  _109
REMARK   45  A    between atoms: _109  and  _110
REMARK   46  A    between atoms: _110  and  _111
REMARK   47  A    between atoms: _111  and  _112
REMARK   48  A    between atoms: _121  and  _123
REMARK   49  A    between atoms: _123  and  _124
REMARK   50  A    between atoms: _123  and  _126
REMARK   51  A    between atoms: _129  and  _131
REMARK   52  A    between atoms: _131  and  _132
REMARK   53  A    between atoms: _131  and  _134
REMARK   54  A    between atoms: _134  and  _135
REMARK   55  A    between atoms: _138  and  _140
REMARK   56  A    between atoms: _140  and  _141
REMARK   57  A    between atoms: _140  and  _143
REMARK   58  A    between atoms: _143  and  _144
REMARK   59  A    between atoms: _147  and  _149
REMARK   60  A    between atoms: _149  and  _150
REMARK   61  A    between atoms: _149  and  _152
REMARK   62  A    between atoms: _152  and  _153
REMARK   63  A    between atoms: _155  and  _157
REMARK   64  A    between atoms: _157  and  _158
REMARK   65  A    between atoms: _157  and  _160
REMARK   66  A    between atoms: _160  and  _161
REMARK   67  A    between atoms: _164  and  _166
REMARK   68  A    between atoms: _166  and  _167
REMARK   69  A    between atoms: _166  and  _169
REMARK   70  A    between atoms: _169  and  _170
REMARK   71  A    between atoms: _172  and  _174
REMARK   72  A    between atoms: _174  and  _175
REMARK   73  A    between atoms: _174  and  _177
REMARK   74  A    between atoms: _177  and  _178
REMARK   75  A    between atoms: _183  and  _185
REMARK   76  A    between atoms: _185  and  _186
REMARK   77  A    between atoms: _185  and  _188
REMARK   78  A    between atoms: _188  and  _189
REMARK   79  A    between atoms: _192  and  _194
REMARK   80  A    between atoms: _194  and  _195
REMARK   81  A    between atoms: _194  and  _197
REMARK   82  A    between atoms: _199  and  _201
REMARK   83  A    between atoms: _201  and  _202
REMARK   84  A    between atoms: _204  and  _206
REMARK   85  A    between atoms: _206  and  _207
REMARK   86  A    between atoms: _206  and  _209
REMARK   87  A    between atoms: _209  and  _210
REMARK   88  A    between atoms: _213  and  _215
REMARK   89  A    between atoms: _215  and  _216
REMARK   90  A    between atoms: _215  and  _218
REMARK   91  A    between atoms: _218  and  _219
REMARK   92  A    between atoms: _222  and  _224
REMARK   93  A    between atoms: _224  and  _225
REMARK   94  A    between atoms: _224  and  _227
REMARK   95  A    between atoms: _227  and  _228
REMARK   96  A    between atoms: _230  and  _232
REMARK   97  A    between atoms: _232  and  _233
REMARK   98  A    between atoms: _232  and  _235
REMARK   99  A    between atoms: _237  and  _239
REMARK  100  A    between atoms: _239  and  _240
REMARK  101  A    between atoms: _239  and  _242
REMARK  102  A    between atoms: _242  and  _243
REMARK  103  A    between atoms: _245  and  _247
REMARK  104  A    between atoms: _247  and  _248
REMARK  105  A    between atoms: _247  and  _250
REMARK  106  A    between atoms: _250  and  _251
REMARK  107  A    between atoms: _253  and  _255
REMARK  108  A    between atoms: _255  and  _256
REMARK  109  A    between atoms: _255  and  _258
REMARK  110  A    between atoms: _258  and  _259
REMARK  111  A    between atoms: _264  and  _266
REMARK  112  A    between atoms: _266  and  _267
REMARK  113  A    between atoms: _266  and  _269
REMARK  114  A    between atoms: _269  and  _270
REMARK  115  A    between atoms: _275  and  _276
REMARK  116  A    between atoms: _278  and  _280
REMARK  117  A    between atoms: _280  and  _281
REMARK  118  A    between atoms: _280  and  _283
REMARK  119  A    between atoms: _283  and  _284
REMARK  120  A    between atoms: _287  and  _289
REMARK  121  A    between atoms: _289  and  _290
REMARK  122  A    between atoms: _289  and  _292
REMARK  123  A    between atoms: _292  and  _293
REMARK  124  A    between atoms: _296  and  _298
REMARK  125  A    between atoms: _298  and  _299
REMARK  126  A    between atoms: _298  and  _301
REMARK  127  A    between atoms: _301  and  _302
REMARK  128  A    between atoms: _302  and  _303
REMARK  129  A    between atoms: _303  and  _304
REMARK  130  A    between atoms: _313  and  _315
REMARK  131  A    between atoms: _315  and  _316
REMARK  132  A    between atoms: _315  and  _318
REMARK  133  A    between atoms: _318  and  _319
REMARK  134  A    between atoms: _323  and  _324
REMARK  135  A    between atoms: _329  and  _331
REMARK  136  A    between atoms: _331  and  _332
REMARK  137  A    between atoms: _331  and  _334
REMARK  138  A    between atoms: _334  and  _335
REMARK  139  A    between atoms: _335  and  _336
REMARK  140  A    between atoms: _336  and  _337
REMARK  141  A    between atoms: _346  and  _348
REMARK  142  A    between atoms: _348  and  _349
REMARK  143  A    between atoms: _348  and  _351
REMARK  144  A    between atoms: _351  and  _352
REMARK  145  A    between atoms: _352  and  _353
REMARK  146  A    between atoms: _356  and  _358
REMARK  147  A    between atoms: _358  and  _359
REMARK  148  A    between atoms: _358  and  _361
REMARK  149  A    between atoms: _364  and  _366
REMARK  150  A    between atoms: _366  and  _367
REMARK  151  A    between atoms: _366  and  _369
REMARK  152  A    between atoms: _369  and  _370
REMARK  153  A    between atoms: _375  and  _377
REMARK  154  A    between atoms: _377  and  _378
REMARK  155  A    between atoms: _377  and  _380
REMARK  156  A    between atoms: _380  and  _381
REMARK  157  A    between atoms: _383  and  _385
REMARK  158  A    between atoms: _385  and  _386
REMARK  159  A    between atoms: _385  and  _388
REMARK  160  A    between atoms: _388  and  _389
REMARK  161  A    between atoms: _399  and  _401
REMARK  162  A    between atoms: _401  and  _402
REMARK  163  A    between atoms: _401  and  _404
REMARK  164  A    between atoms: _404  and  _405
REMARK  165  A    between atoms: _408  and  _410
REMARK  166  A    between atoms: _410  and  _411
REMARK  167  A    between atoms: _413  and  _415
REMARK  168  A    between atoms: _415  and  _416
REMARK  169  A    between atoms: _415  and  _418
REMARK  170  A    between atoms: _418  and  _419
REMARK  171  A    between atoms: _424  and  _426
REMARK  172  A    between atoms: _426  and  _427
REMARK  173  A    between atoms: _426  and  _429
REMARK  174  A    between atoms: _429  and  _430
REMARK  175  A    between atoms: _433  and  _435
REMARK  176  A    between atoms: _435  and  _436
REMARK  177  A    between atoms: _435  and  _438
REMARK  178  A    between atoms: _438  and  _439
REMARK  179  A    between atoms: _442  and  _444
REMARK  180  A    between atoms: _444  and  _445
REMARK  181  A    between atoms: _444  and  _447
REMARK  182  A    between atoms: _447  and  _448
REMARK  183  A    between atoms: _448  and  _449
REMARK  184  A    between atoms: _451  and  _453
REMARK  185  A    between atoms: _453  and  _454
REMARK  186  A    between atoms: _453  and  _456
REMARK  187  A    between atoms: _456  and  _457
REMARK  188  A    between atoms: _463  and  _465
REMARK  189  A    between atoms: _465  and  _466
REMARK  190  A    between atoms: _470  and  _471
REMARK  191  A    between atoms: _476  and  _478
REMARK  192  A    between atoms: _478  and  _479
REMARK  193  A    between atoms: _478  and  _481
REMARK  194  A    between atoms: _481  and  _482
REMARK  195  A    between atoms: _485  and  _487
REMARK  196  A    between atoms: _487  and  _488
REMARK  197  A    between atoms: _487  and  _490
REMARK  198  A    between atoms: _490  and  _491
REMARK  199  A    between atoms: _501  and  _503
REMARK  200  A    between atoms: _503  and  _504
REMARK  201  A    between atoms: _503  and  _506
REMARK  202  A    between atoms: _508  and  _510
REMARK  203  A    between atoms: _510  and  _511
REMARK  204  A    between atoms: _510  and  _513
REMARK  205  A    between atoms: _513  and  _514
REMARK  206  A    between atoms: _514  and  _515
REMARK  207  A    between atoms: _518  and  _520
REMARK  208  A    between atoms: _520  and  _521
REMARK  209  A    between atoms: _520  and  _523
REMARK  210  A    between atoms: _523  and  _524
REMARK  211  A    between atoms: _527  and  _529
REMARK  212  A    between atoms: _529  and  _530
REMARK  213  A    between atoms: _529  and  _532
REMARK  214  A    between atoms: _532  and  _533
REMARK  215  A    between atoms: _538  and  _539
REMARK  216  A    between atoms: _541  and  _543
REMARK  217  A    between atoms: _543  and  _544
REMARK  218  A    between atoms: _546  and  _548
REMARK  219  A    between atoms: _548  and  _549
REMARK  220  A    between atoms: _552  and  _554
REMARK  221  A    between atoms: _554  and  _555
REMARK  222  A    between atoms: _554  and  _557
REMARK  223  A    between atoms: _559  and  _561
REMARK  224  A    between atoms: _561  and  _562
REMARK  225  A    between atoms: _561  and  _564
REMARK  226  A    between atoms: _564  and  _565
REMARK  227  A    between atoms: _570  and  _571
REMARK  228  A    between atoms: _573  and  _575
REMARK  229  A    between atoms: _575  and  _576
REMARK  230  A    between atoms: _575  and  _578
REMARK  231  A    between atoms: _578  and  _579
REMARK  232  A    between atoms: _584  and  _586
REMARK  233  A    between atoms: _586  and  _587
REMARK  234  A    between atoms: _586  and  _589
REMARK  235  A    between atoms: _589  and  _590
REMARK  236  A    between atoms: _596  and  _598
REMARK  237  A    between atoms: _598  and  _599
REMARK  238  A    between atoms: _602  and  _604
REMARK  239  A    between atoms: _604  and  _605
REMARK  240  A    between atoms: _607  and  _609
REMARK  241  A    between atoms: _609  and  _610
REMARK  242  A    between atoms: _609  and  _612
REMARK  243  A    between atoms: _612  and  _613
REMARK  244  A    between atoms: _618  and  _619
REMARK  245  A    between atoms: _621  and  _623
REMARK  246  A    between atoms: _623  and  _624
REMARK  247  A    between atoms: _623  and  _626
REMARK  248  A    between atoms: _626  and  _627
REMARK  249  A    between atoms: _629  and  _631
REMARK  250  A    between atoms: _631  and  _632
REMARK  251  A    between atoms: _634  and  _636
REMARK  252  A    between atoms: _636  and  _637
REMARK                            x       y       z     vdW  Elec       q    Type
REMARK                         _______ _______ _______ _____ _____    ______ ____
ROOT
ATOM      1  O   HOH     1      38.414  -2.454 -21.397  0.00  0.00    +0.000 OA
ENDROOT
TORSDOF 0
REMARK  Name = ../refined-set-2016/3hkw/3hkw_pocket.pdb
REMARK  252 active torsions:
REMARK  status: ('A' for Active; 'I' for Inactive)
REMARK    1  A    between atoms: _1  and  _3
REMARK    2  A    between atoms: _3  and  _4
REMARK    3  A    between atoms: _3  and  _6
REMARK    4  A    between atoms: _6  and  _7
REMARK    5  A    between atoms: _7  and  _8
REMARK    6  A    between atoms: _8  and  _9
REMARK    7  A    between atoms: _9  and  _10
REMARK    8  A    between atoms: _14  and  _16
REMARK    9  A    between atoms: _16  and  _17
REMARK   10  A    between atoms: _16  and  _19
REMARK   11  A    between atoms: _19  and  _20
REMARK   12  A    between atoms: _20  and  _21
REMARK   13  A    between atoms: _24  and  _26
REMARK   14  A    between atoms: _26  and  _27
REMARK   15  A    between atoms: _26  and  _29
REMARK   16  A    between atoms: _29  and  _30
REMARK   17  A    between atoms: _30  and  _31
REMARK   18  A    between atoms: _31  and  _32
REMARK   19  A    between atoms: _41  and  _43
REMARK   20  A    between atoms: _43  and  _44
REMARK   21  A    between atoms: _46  and  _48
REMARK   22  A    between atoms: _48  and  _49
REMARK   23  A    between atoms: _48  and  _51
REMARK   24  A    between atoms: _51  and  _52
REMARK   25  A    between atoms: _58  and  _60
REMARK   26  A    between atoms: _60  and  _61
REMARK   27  A    between atoms: _60  and  _63
REMARK   28  A    between atoms: _63  and  _64
REMARK   29  A    between atoms: _69  and  _70
REMARK   30  A    between atoms: _72  and  _74
REMARK   31  A    between atoms: _74  and  _75
REMARK   32  A    between atoms: _74  and  _77
REMARK   33  A    between atoms: _77  and  _78
REMARK   34  A    between atoms: _81  and  _82
REMARK   35  A    between atoms: _87  and  _89
REMARK   36  A    between atoms: _89  and  _90
REMARK   37  A    between atoms: _92  and  _94
REMARK   38  A    between atoms: _94  and  _95
REMARK   39  A    between atoms: _94  and  _97
REMARK   40  A    between atoms: _97  and  _98
REMARK   41  A    between atoms: _98  and  _99
REMARK   42  A    between atoms: _104  and  _106
REMARK   43  A    between atoms: _106  and  _107
REMARK   44  A    between atoms: _106  and  _109
REMARK   45  A    between atoms: _109  and  _110
REMARK   46  A    between atoms: _110  and  _111
REMARK   47  A    between atoms: _111  and  _112
REMARK   48  A    between atoms: _121  and  _123
REMARK   49  A    between atoms: _123  and  _124
REMARK   50  A    between atoms: _123  and  _126
REMARK   51  A    between atoms: _129  and  _131
REMARK   52  A    between atoms: _131  and  _132
REMARK   53  A    between atoms: _131  and  _134
REMARK   54  A    between atoms: _134  and  _135
REMARK   55  A    between atoms: _138  and  _140
REMARK   56  A    between atoms: _140  and  _141
REMARK   57  A    between atoms: _140  and  _143
REMARK   58  A    between atoms: _143  and  _144
REMARK   59  A    between atoms: _147  and  _149
REMARK   60  A    between atoms: _149  and  _150
REMARK   61  A    between atoms: _149  and  _152
REMARK   62  A    between atoms: _152  and  _153
REMARK   63  A    between atoms: _155  and  _157
REMARK   64  A    between atoms: _157  and  _158
REMARK   65  A    between atoms: _157  and  _160
REMARK   66  A    between atoms: _160  and  _161
REMARK   67  A    between atoms: _164  and  _166
REMARK   68  A    between atoms: _166  and  _167
REMARK   69  A    between atoms: _166  and  _169
REMARK   70  A    between atoms: _169  and  _170
REMARK   71  A    between atoms: _172  and  _174
REMARK   72  A    between atoms: _174  and  _175
REMARK   73  A    between atoms: _174  and  _177
REMARK   74  A    between atoms: _177  and  _178
REMARK   75  A    between atoms: _183  and  _185
REMARK   76  A    between atoms: _185  and  _186
REMARK   77  A    between atoms: _185  and  _188
REMARK   78  A    between atoms: _188  and  _189
REMARK   79  A    between atoms: _192  and  _194
REMARK   80  A    between atoms: _194  and  _195
REMARK   81  A    between atoms: _194  and  _197
REMARK   82  A    between atoms: _199  and  _201
REMARK   83  A    between atoms: _201  and  _202
REMARK   84  A    between atoms: _204  and  _206
REMARK   85  A    between atoms: _206  and  _207
REMARK   86  A    between atoms: _206  and  _209
REMARK   87  A    between atoms: _209  and  _210
REMARK   88  A    between atoms: _213  and  _215
REMARK   89  A    between atoms: _215  and  _216
REMARK   90  A    between atoms: _215  and  _218
REMARK   91  A    between atoms: _218  and  _219
REMARK   92  A    between atoms: _222  and  _224
REMARK   93  A    between atoms: _224  and  _225
REMARK   94  A    between atoms: _224  and  _227
REMARK   95  A    between atoms: _227  and  _228
REMARK   96  A    between atoms: _230  and  _232
REMARK   97  A    between atoms: _232  and  _233
REMARK   98  A    between atoms: _232  and  _235
REMARK   99  A    between atoms: _237  and  _239
REMARK  100  A    between atoms: _239  and  _240
REMARK  101  A    between atoms: _239  and  _242
REMARK  102  A    between atoms: _242  and  _243
REMARK  103  A    between atoms: _245  and  _247
REMARK  104  A    between atoms: _247  and  _248
REMARK  105  A    between atoms: _247  and  _250
REMARK  106  A    between atoms: _250  and  _251
REMARK  107  A    between atoms: _253  and  _255
REMARK  108  A    between atoms: _255  and  _256
REMARK  109  A    between atoms: _255  and  _258
REMARK  110  A    between atoms: _258  and  _259
REMARK  111  A    between atoms: _264  and  _266
REMARK  112  A    between atoms: _266  and  _267
REMARK  113  A    between atoms: _266  and  _269
REMARK  114  A    between atoms: _269  and  _270
REMARK  115  A    between atoms: _275  and  _276
REMARK  116  A    between atoms: _278  and  _280
REMARK  117  A    between atoms: _280  and  _281
REMARK  118  A    between atoms: _280  and  _283
REMARK  119  A    between atoms: _283  and  _284
REMARK  120  A    between atoms: _287  and  _289
REMARK  121  A    between atoms: _289  and  _290
REMARK  122  A    between atoms: _289  and  _292
REMARK  123  A    between atoms: _292  and  _293
REMARK  124  A    between atoms: _296  and  _298
REMARK  125  A    between atoms: _298  and  _299
REMARK  126  A    between atoms: _298  and  _301
REMARK  127  A    between atoms: _301  and  _302
REMARK  128  A    between atoms: _302  and  _303
REMARK  129  A    between atoms: _303  and  _304
REMARK  130  A    between atoms: _313  and  _315
REMARK  131  A    between atoms: _315  and  _316
REMARK  132  A    between atoms: _315  and  _318
REMARK  133  A    between atoms: _318  and  _319
REMARK  134  A    between atoms: _323  and  _324
REMARK  135  A    between atoms: _329  and  _331
REMARK  136  A    between atoms: _331  and  _332
REMARK  137  A    between atoms: _331  and  _334
REMARK  138  A    between atoms: _334  and  _335
REMARK  139  A    between atoms: _335  and  _336
REMARK  140  A    between atoms: _336  and  _337
REMARK  141  A    between atoms: _346  and  _348
REMARK  142  A    between atoms: _348  and  _349
REMARK  143  A    between atoms: _348  and  _351
REMARK  144  A    between atoms: _351  and  _352
REMARK  145  A    between atoms: _352  and  _353
REMARK  146  A    between atoms: _356  and  _358
REMARK  147  A    between atoms: _358  and  _359
REMARK  148  A    between atoms: _358  and  _361
REMARK  149  A    between atoms: _364  and  _366
REMARK  150  A    between atoms: _366  and  _367
REMARK  151  A    between atoms: _366  and  _369
REMARK  152  A    between atoms: _369  and  _370
REMARK  153  A    between atoms: _375  and  _377
REMARK  154  A    between atoms: _377  and  _378
REMARK  155  A    between atoms: _377  and  _380
REMARK  156  A    between atoms: _380  and  _381
REMARK  157  A    between atoms: _383  and  _385
REMARK  158  A    between atoms: _385  and  _386
REMARK  159  A    between atoms: _385  and  _388
REMARK  160  A    between atoms: _388  and  _389
REMARK  161  A    between atoms: _399  and  _401
REMARK  162  A    between atoms: _401  and  _402
REMARK  163  A    between atoms: _401  and  _404
REMARK  164  A    between atoms: _404  and  _405
REMARK  165  A    between atoms: _408  and  _410
REMARK  166  A    between atoms: _410  and  _411
REMARK  167  A    between atoms: _413  and  _415
REMARK  168  A    between atoms: _415  and  _416
REMARK  169  A    between atoms: _415  and  _418
REMARK  170  A    between atoms: _418  and  _419
REMARK  171  A    between atoms: _424  and  _426
REMARK  172  A    between atoms: _426  and  _427
REMARK  173  A    between atoms: _426  and  _429
REMARK  174  A    between atoms: _429  and  _430
REMARK  175  A    between atoms: _433  and  _435
REMARK  176  A    between atoms: _435  and  _436
REMARK  177  A    between atoms: _435  and  _438
REMARK  178  A    between atoms: _438  and  _439
REMARK  179  A    between atoms: _442  and  _444
REMARK  180  A    between atoms: _444  and  _445
REMARK  181  A    between atoms: _444  and  _447
REMARK  182  A    between atoms: _447  and  _448
REMARK  183  A    between atoms: _448  and  _449
REMARK  184  A    between atoms: _451  and  _453
REMARK  185  A    between atoms: _453  and  _454
REMARK  186  A    between atoms: _453  and  _456
REMARK  187  A    between atoms: _456  and  _457
REMARK  188  A    between atoms: _463  and  _465
REMARK  189  A    between atoms: _465  and  _466
REMARK  190  A    between atoms: _470  and  _471
REMARK  191  A    between atoms: _476  and  _478
REMARK  192  A    between atoms: _478  and  _479
REMARK  193  A    between atoms: _478  and  _481
REMARK  194  A    between atoms: _481  and  _482
REMARK  195  A    between atoms: _485  and  _487
REMARK  196  A    between atoms: _487  and  _488
REMARK  197  A    between atoms: _487  and  _490
REMARK  198  A    between atoms: _490  and  _491
REMARK  199  A    between atoms: _501  and  _503
REMARK  200  A    between atoms: _503  and  _504
REMARK  201  A    between atoms: _503  and  _506
REMARK  202  A    between atoms: _508  and  _510
REMARK  203  A    between atoms: _510  and  _511
REMARK  204  A    between atoms: _510  and  _513
REMARK  205  A    between atoms: _513  and  _514
REMARK  206  A    between atoms: _514  and  _515
REMARK  207  A    between atoms: _518  and  _520
REMARK  208  A    between atoms: _520  and  _521
REMARK  209  A    between atoms: _520  and  _523
REMARK  210  A    between atoms: _523  and  _524
REMARK  211  A    between atoms: _527  and  _529
REMARK  212  A    between atoms: _529  and  _530
REMARK  213  A    between atoms: _529  and  _532
REMARK  214  A    between atoms: _532  and  _533
REMARK  215  A    between atoms: _538  and  _539
REMARK  216  A    between atoms: _541  and  _543
REMARK  217  A    between atoms: _543  and  _544
REMARK  218  A    between atoms: _546  and  _548
REMARK  219  A    between atoms: _548  and  _549
REMARK  220  A    between atoms: _552  and  _554
REMARK  221  A    between atoms: _554  and  _555
REMARK  222  A    between atoms: _554  and  _557
REMARK  223  A    between atoms: _559  and  _561
REMARK  224  A    between atoms: _561  and  _562
REMARK  225  A    between atoms: _561  and  _564
REMARK  226  A    between atoms: _564  and  _565
REMARK  227  A    between atoms: _570  and  _571
REMARK  228  A    between atoms: _573  and  _575
REMARK  229  A    between atoms: _575  and  _576
REMARK  230  A    between atoms: _575  and  _578
REMARK  231  A    between atoms: _578  and  _579
REMARK  232  A    between atoms: _584  and  _586
REMARK  233  A    between atoms: _586  and  _587
REMARK  234  A    between atoms: _586  and  _589
REMARK  235  A    between atoms: _589  and  _590
REMARK  236  A    between atoms: _596  and  _598
REMARK  237  A    between atoms: _598  and  _599
REMARK  238  A    between atoms: _602  and  _604
REMARK  239  A    between atoms: _604  and  _605
REMARK  240  A    between atoms: _607  and  _609
REMARK  241  A    between atoms: _609  and  _610
REMARK  242  A    between atoms: _609  and  _612
REMARK  243  A    between atoms: _612  and  _613
REMARK  244  A    between atoms: _618  and  _619
REMARK  245  A    between atoms: _621  and  _623
REMARK  246  A    between atoms: _623  and  _624
REMARK  247  A    between atoms: _623  and  _626
REMARK  248  A    between atoms: _626  and  _627
REMARK  249  A    between atoms: _629  and  _631
REMARK  250  A    between atoms: _631  and  _632
REMARK  251  A    between atoms: _634  and  _636
REMARK  252  A    between atoms: _636  and  _637
REMARK                            x       y       z     vdW  Elec       q    Type
REMARK                         _______ _______ _______ _____ _____    ______ ____
ROOT
ATOM      1  O   HOH     1      46.845  -4.728 -13.139  0.00  0.00    +0.000 OA
ENDROOT
TORSDOF 0
