REMARK  Name = ../refined-set-2016/4ruz/4ruz_pocket.pdb
REMARK  145 active torsions:
REMARK  status: ('A' for Active; 'I' for Inactive)
REMARK    1  A    between atoms: _1  and  _3
REMARK    2  A    between atoms: _3  and  _4
REMARK    3  A    between atoms: _3  and  _6
REMARK    4  A    between atoms: _6  and  _7
REMARK    5  A    between atoms: _17  and  _19
REMARK    6  A    between atoms: _19  and  _20
REMARK    7  A    between atoms: _19  and  _22
REMARK    8  A    between atoms: _22  and  _23
REMARK    9  A    between atoms: _28  and  _29
REMARK   10  A    between atoms: _31  and  _33
REMARK   11  A    between atoms: _33  and  _34
REMARK   12  A    between atoms: _33  and  _36
REMARK   13  A    between atoms: _36  and  _37
REMARK   14  A    between atoms: _40  and  _41
REMARK   15  A    between atoms: _46  and  _48
REMARK   16  A    between atoms: _48  and  _49
REMARK   17  A    between atoms: _48  and  _51
REMARK   18  A    between atoms: _51  and  _52
REMARK   19  A    between atoms: _57  and  _59
REMARK   20  A    between atoms: _59  and  _60
REMARK   21  A    between atoms: _63  and  _65
REMARK   22  A    between atoms: _65  and  _66
REMARK   23  A    between atoms: _65  and  _68
REMARK   24  A    between atoms: _68  and  _69
REMARK   25  A    between atoms: _74  and  _76
REMARK   26  A    between atoms: _76  and  _77
REMARK   27  A    between atoms: _76  and  _79
REMARK   28  A    between atoms: _79  and  _80
REMARK   29  A    between atoms: _83  and  _85
REMARK   30  A    between atoms: _85  and  _86
REMARK   31  A    between atoms: _85  and  _88
REMARK   32  A    between atoms: _88  and  _89
REMARK   33  A    between atoms: _89  and  _90
REMARK   34  A    between atoms: _95  and  _97
REMARK   35  A    between atoms: _97  and  _98
REMARK   36  A    between atoms: _97  and  _100
REMARK   37  A    between atoms: _100  and  _101
REMARK   38  A    between atoms: _107  and  _109
REMARK   39  A    between atoms: _120  and  _123
REMARK   40  A    between atoms: _123  and  _124
REMARK   41  A    between atoms: _132  and  _133
REMARK   42  A    between atoms: _141  and  _143
REMARK   43  A    between atoms: _143  and  _144
REMARK   44  A    between atoms: _143  and  _146
REMARK   45  A    between atoms: _146  and  _147
REMARK   46  A    between atoms: _147  and  _148
REMARK   47  A    between atoms: _151  and  _153
REMARK   48  A    between atoms: _153  and  _154
REMARK   49  A    between atoms: _153  and  _156
REMARK   50  A    between atoms: _156  and  _157
REMARK   51  A    between atoms: _162  and  _164
REMARK   52  A    between atoms: _164  and  _165
REMARK   53  A    between atoms: _164  and  _167
REMARK   54  A    between atoms: _167  and  _168
REMARK   55  A    between atoms: _168  and  _169
REMARK   56  A    between atoms: _172  and  _174
REMARK   57  A    between atoms: _174  and  _175
REMARK   58  A    between atoms: _174  and  _177
REMARK   59  A    between atoms: _177  and  _178
REMARK   60  A    between atoms: _181  and  _183
REMARK   61  A    between atoms: _183  and  _184
REMARK   62  A    between atoms: _183  and  _186
REMARK   63  A    between atoms: _186  and  _187
REMARK   64  A    between atoms: _188  and  ZN_408
REMARK   65  A    between atoms: _192  and  _194
REMARK   66  A    between atoms: _194  and  _195
REMARK   67  A    between atoms: _194  and  _197
REMARK   68  A    between atoms: _197  and  _198
REMARK   69  A    between atoms: _201  and  _203
REMARK   70  A    between atoms: _203  and  _204
REMARK   71  A    between atoms: _203  and  _206
REMARK   72  A    between atoms: _209  and  _211
REMARK   73  A    between atoms: _211  and  _212
REMARK   74  A    between atoms: _211  and  _214
REMARK   75  A    between atoms: _214  and  _215
REMARK   76  A    between atoms: _220  and  _222
REMARK   77  A    between atoms: _222  and  _223
REMARK   78  A    between atoms: _222  and  _225
REMARK   79  A    between atoms: _225  and  _226
REMARK   80  A    between atoms: _232  and  _234
REMARK   81  A    between atoms: _234  and  _235
REMARK   82  A    between atoms: _234  and  _237
REMARK   83  A    between atoms: _240  and  _242
REMARK   84  A    between atoms: _242  and  _243
REMARK   85  A    between atoms: _242  and  _245
REMARK   86  A    between atoms: _245  and  _246
REMARK   87  A    between atoms: _249  and  _251
REMARK   88  A    between atoms: _251  and  _252
REMARK   89  A    between atoms: _255  and  _257
REMARK   90  A    between atoms: _257  and  _258
REMARK   91  A    between atoms: _257  and  _260
REMARK   92  A    between atoms: _263  and  _265
REMARK   93  A    between atoms: _265  and  _266
REMARK   94  A    between atoms: _265  and  _268
REMARK   95  A    between atoms: _268  and  _269
REMARK   96  A    between atoms: _272  and  _274
REMARK   97  A    between atoms: _274  and  _275
REMARK   98  A    between atoms: _277  and  _279
REMARK   99  A    between atoms: _279  and  _280
REMARK  100  A    between atoms: _282  and  _284
REMARK  101  A    between atoms: _284  and  _285
REMARK  102  A    between atoms: _284  and  _287
REMARK  103  A    between atoms: _287  and  _288
REMARK  104  A    between atoms: _290  and  _292
REMARK  105  A    between atoms: _292  and  _293
REMARK  106  A    between atoms: _292  and  _295
REMARK  107  A    between atoms: _295  and  _296
REMARK  108  A    between atoms: _299  and  _301
REMARK  109  A    between atoms: _301  and  _302
REMARK  110  A    between atoms: _301  and  _304
REMARK  111  A    between atoms: _304  and  _305
REMARK  112  A    between atoms: _308  and  _310
REMARK  113  A    between atoms: _310  and  _311
REMARK  114  A    between atoms: _310  and  _313
REMARK  115  A    between atoms: _313  and  _314
REMARK  116  A    between atoms: _318  and  _319
REMARK  117  A    between atoms: _325  and  _326
REMARK  118  A    between atoms: _331  and  _333
REMARK  119  A    between atoms: _333  and  _334
REMARK  120  A    between atoms: _333  and  _336
REMARK  121  A    between atoms: _336  and  _337
REMARK  122  A    between atoms: _340  and  _342
REMARK  123  A    between atoms: _342  and  _343
REMARK  124  A    between atoms: _342  and  _345
REMARK  125  A    between atoms: _345  and  _346
REMARK  126  A    between atoms: _349  and  _351
REMARK  127  A    between atoms: _351  and  _352
REMARK  128  A    between atoms: _351  and  _354
REMARK  129  A    between atoms: _356  and  _358
REMARK  130  A    between atoms: _358  and  _359
REMARK  131  A    between atoms: _358  and  _361
REMARK  132  A    between atoms: _364  and  _366
REMARK  133  A    between atoms: _366  and  _367
REMARK  134  A    between atoms: _366  and  _369
REMARK  135  A    between atoms: _369  and  _370
REMARK  136  A    between atoms: _380  and  _382
REMARK  137  A    between atoms: _382  and  _383
REMARK  138  A    between atoms: _382  and  _385
REMARK  139  A    between atoms: _385  and  _386
REMARK  140  A    between atoms: _391  and  _393
REMARK  141  A    between atoms: _393  and  _394
REMARK  142  A    between atoms: _393  and  _396
REMARK  143  A    between atoms: _396  and  _397
REMARK  144  A    between atoms: _397  and  _398
REMARK  145  A    between atoms: _398  and  _399
REMARK                            x       y       z     vdW  Elec       q    Type
REMARK                         _______ _______ _______ _____ _____    ______ ____
ROOT
ATOM      1  CG  TRP A   1       5.883   0.305  12.171  0.00  0.00    -0.002 A 
ATOM      2  CD2 TRP A   1       4.523  -0.133  12.095  0.00  0.00    +0.013 A 
ATOM      3  CE3 TRP A   1       3.886  -1.363  12.303  0.00  0.00    +0.001 A 
ATOM      4  CZ3 TRP A   1       2.508  -1.433  12.132  0.00  0.00    +0.000 A 
ATOM      5  CH2 TRP A   1       1.763  -0.303  11.779  0.00  0.00    +0.001 A 
ATOM      6  CZ2 TRP A   1       2.357   0.907  11.576  0.00  0.00    +0.017 A 
ATOM      7  CE2 TRP A   1       3.742   0.983  11.734  0.00  0.00    +0.056 A 
ATOM      8  NE1 TRP A   1       4.591   2.049  11.593  0.00  0.00    -0.352 N 
ATOM      9  HE1 TRP A   1       4.311   3.014  11.324  0.00  0.00    +0.166 HD
ATOM     10  CD1 TRP A   1       5.874   1.635  11.865  0.00  0.00    +0.068 A 
ENDROOT
BRANCH   1  11
ATOM     11  CB  TRP A   1       7.077  -0.538  12.517  0.00  0.00    +0.053 C 
BRANCH  11  12
ATOM     12  CA  TRP A   1       7.736  -1.185  11.299  0.00  0.00    +0.137 C 
BRANCH  12  13
ATOM     13  N   TRP A   1       8.353  -0.175  10.447  0.00  0.00    -0.239 NA
ATOM     14  H   TRP A   1       8.149   0.831  10.613  0.00  0.00    +0.142 HD
ENDBRANCH  12  13
BRANCH  12  15
ATOM     15  C   TRP A   1       6.714  -1.994  10.518  0.00  0.00    +0.224 C 
ATOM     16  O   TRP A   1       6.173  -1.531   9.505  0.00  0.00    -0.287 OA
ENDBRANCH  12  15
ENDBRANCH  11  12
ENDBRANCH   1  11
TORSDOF 4
REMARK  Name = ../refined-set-2016/4ruz/4ruz_pocket.pdb
REMARK  145 active torsions:
REMARK  status: ('A' for Active; 'I' for Inactive)
REMARK    1  A    between atoms: _1  and  _3
REMARK    2  A    between atoms: _3  and  _4
REMARK    3  A    between atoms: _3  and  _6
REMARK    4  A    between atoms: _6  and  _7
REMARK    5  A    between atoms: _17  and  _19
REMARK    6  A    between atoms: _19  and  _20
REMARK    7  A    between atoms: _19  and  _22
REMARK    8  A    between atoms: _22  and  _23
REMARK    9  A    between atoms: _28  and  _29
REMARK   10  A    between atoms: _31  and  _33
REMARK   11  A    between atoms: _33  and  _34
REMARK   12  A    between atoms: _33  and  _36
REMARK   13  A    between atoms: _36  and  _37
REMARK   14  A    between atoms: _40  and  _41
REMARK   15  A    between atoms: _46  and  _48
REMARK   16  A    between atoms: _48  and  _49
REMARK   17  A    between atoms: _48  and  _51
REMARK   18  A    between atoms: _51  and  _52
REMARK   19  A    between atoms: _57  and  _59
REMARK   20  A    between atoms: _59  and  _60
REMARK   21  A    between atoms: _63  and  _65
REMARK   22  A    between atoms: _65  and  _66
REMARK   23  A    between atoms: _65  and  _68
REMARK   24  A    between atoms: _68  and  _69
REMARK   25  A    between atoms: _74  and  _76
REMARK   26  A    between atoms: _76  and  _77
REMARK   27  A    between atoms: _76  and  _79
REMARK   28  A    between atoms: _79  and  _80
REMARK   29  A    between atoms: _83  and  _85
REMARK   30  A    between atoms: _85  and  _86
REMARK   31  A    between atoms: _85  and  _88
REMARK   32  A    between atoms: _88  and  _89
REMARK   33  A    between atoms: _89  and  _90
REMARK   34  A    between atoms: _95  and  _97
REMARK   35  A    between atoms: _97  and  _98
REMARK   36  A    between atoms: _97  and  _100
REMARK   37  A    between atoms: _100  and  _101
REMARK   38  A    between atoms: _107  and  _109
REMARK   39  A    between atoms: _120  and  _123
REMARK   40  A    between atoms: _123  and  _124
REMARK   41  A    between atoms: _132  and  _133
REMARK   42  A    between atoms: _141  and  _143
REMARK   43  A    between atoms: _143  and  _144
REMARK   44  A    between atoms: _143  and  _146
REMARK   45  A    between atoms: _146  and  _147
REMARK   46  A    between atoms: _147  and  _148
REMARK   47  A    between atoms: _151  and  _153
REMARK   48  A    between atoms: _153  and  _154
REMARK   49  A    between atoms: _153  and  _156
REMARK   50  A    between atoms: _156  and  _157
REMARK   51  A    between atoms: _162  and  _164
REMARK   52  A    between atoms: _164  and  _165
REMARK   53  A    between atoms: _164  and  _167
REMARK   54  A    between atoms: _167  and  _168
REMARK   55  A    between atoms: _168  and  _169
REMARK   56  A    between atoms: _172  and  _174
REMARK   57  A    between atoms: _174  and  _175
REMARK   58  A    between atoms: _174  and  _177
REMARK   59  A    between atoms: _177  and  _178
REMARK   60  A    between atoms: _181  and  _183
REMARK   61  A    between atoms: _183  and  _184
REMARK   62  A    between atoms: _183  and  _186
REMARK   63  A    between atoms: _186  and  _187
REMARK   64  A    between atoms: _188  and  ZN_408
REMARK   65  A    between atoms: _192  and  _194
REMARK   66  A    between atoms: _194  and  _195
REMARK   67  A    between atoms: _194  and  _197
REMARK   68  A    between atoms: _197  and  _198
REMARK   69  A    between atoms: _201  and  _203
REMARK   70  A    between atoms: _203  and  _204
REMARK   71  A    between atoms: _203  and  _206
REMARK   72  A    between atoms: _209  and  _211
REMARK   73  A    between atoms: _211  and  _212
REMARK   74  A    between atoms: _211  and  _214
REMARK   75  A    between atoms: _214  and  _215
REMARK   76  A    between atoms: _220  and  _222
REMARK   77  A    between atoms: _222  and  _223
REMARK   78  A    between atoms: _222  and  _225
REMARK   79  A    between atoms: _225  and  _226
REMARK   80  A    between atoms: _232  and  _234
REMARK   81  A    between atoms: _234  and  _235
REMARK   82  A    between atoms: _234  and  _237
REMARK   83  A    between atoms: _240  and  _242
REMARK   84  A    between atoms: _242  and  _243
REMARK   85  A    between atoms: _242  and  _245
REMARK   86  A    between atoms: _245  and  _246
REMARK   87  A    between atoms: _249  and  _251
REMARK   88  A    between atoms: _251  and  _252
REMARK   89  A    between atoms: _255  and  _257
REMARK   90  A    between atoms: _257  and  _258
REMARK   91  A    between atoms: _257  and  _260
REMARK   92  A    between atoms: _263  and  _265
REMARK   93  A    between atoms: _265  and  _266
REMARK   94  A    between atoms: _265  and  _268
REMARK   95  A    between atoms: _268  and  _269
REMARK   96  A    between atoms: _272  and  _274
REMARK   97  A    between atoms: _274  and  _275
REMARK   98  A    between atoms: _277  and  _279
REMARK   99  A    between atoms: _279  and  _280
REMARK  100  A    between atoms: _282  and  _284
REMARK  101  A    between atoms: _284  and  _285
REMARK  102  A    between atoms: _284  and  _287
REMARK  103  A    between atoms: _287  and  _288
REMARK  104  A    between atoms: _290  and  _292
REMARK  105  A    between atoms: _292  and  _293
REMARK  106  A    between atoms: _292  and  _295
REMARK  107  A    between atoms: _295  and  _296
REMARK  108  A    between atoms: _299  and  _301
REMARK  109  A    between atoms: _301  and  _302
REMARK  110  A    between atoms: _301  and  _304
REMARK  111  A    between atoms: _304  and  _305
REMARK  112  A    between atoms: _308  and  _310
REMARK  113  A    between atoms: _310  and  _311
REMARK  114  A    between atoms: _310  and  _313
REMARK  115  A    between atoms: _313  and  _314
REMARK  116  A    between atoms: _318  and  _319
REMARK  117  A    between atoms: _325  and  _326
REMARK  118  A    between atoms: _331  and  _333
REMARK  119  A    between atoms: _333  and  _334
REMARK  120  A    between atoms: _333  and  _336
REMARK  121  A    between atoms: _336  and  _337
REMARK  122  A    between atoms: _340  and  _342
REMARK  123  A    between atoms: _342  and  _343
REMARK  124  A    between atoms: _342  and  _345
REMARK  125  A    between atoms: _345  and  _346
REMARK  126  A    between atoms: _349  and  _351
REMARK  127  A    between atoms: _351  and  _352
REMARK  128  A    between atoms: _351  and  _354
REMARK  129  A    between atoms: _356  and  _358
REMARK  130  A    between atoms: _358  and  _359
REMARK  131  A    between atoms: _358  and  _361
REMARK  132  A    between atoms: _364  and  _366
REMARK  133  A    between atoms: _366  and  _367
REMARK  134  A    between atoms: _366  and  _369
REMARK  135  A    between atoms: _369  and  _370
REMARK  136  A    between atoms: _380  and  _382
REMARK  137  A    between atoms: _382  and  _383
REMARK  138  A    between atoms: _382  and  _385
REMARK  139  A    between atoms: _385  and  _386
REMARK  140  A    between atoms: _391  and  _393
REMARK  141  A    between atoms: _393  and  _394
REMARK  142  A    between atoms: _393  and  _396
REMARK  143  A    between atoms: _396  and  _397
REMARK  144  A    between atoms: _397  and  _398
REMARK  145  A    between atoms: _398  and  _399
REMARK                            x       y       z     vdW  Elec       q    Type
REMARK                         _______ _______ _______ _____ _____    ______ ____
ROOT
ATOM      1  CG  TYR A   1       1.988  -6.760  11.730  0.00  0.00    -0.020 A 
ATOM      2  CD2 TYR A   1       1.585  -6.782  13.058  0.00  0.00    -0.001 A 
ATOM      3  CE2 TYR A   1       0.755  -5.804  13.561  0.00  0.00    +0.036 A 
ATOM      4  CZ  TYR A   1       0.295  -4.803  12.734  0.00  0.00    +0.134 A 
ATOM      5  CE1 TYR A   1       0.680  -4.754  11.403  0.00  0.00    +0.036 A 
ATOM      6  CD1 TYR A   1       1.523  -5.729  10.915  0.00  0.00    -0.001 A 
ENDROOT
BRANCH   4   7
ATOM      7  OH  TYR A   1      -0.541  -3.841  13.243  0.00  0.00    -0.506 OA
ATOM      8  HH  TYR A   1      -0.712  -4.027  14.200  0.00  0.00    +0.292 HD
ENDBRANCH   4   7
BRANCH   1   9
ATOM      9  CB  TYR A   1       2.906  -7.832  11.185  0.00  0.00    +0.051 C 
BRANCH   9  10
ATOM     10  CA  TYR A   1       4.392  -7.549  11.422  0.00  0.00    +0.137 C 
BRANCH  10  11
ATOM     11  N   TYR A   1       4.810  -6.377  10.657  0.00  0.00    -0.239 NA
ATOM     12  H   TYR A   1       4.906  -6.448   9.624  0.00  0.00    +0.142 HD
ENDBRANCH  10  11
BRANCH  10  13
ATOM     13  C   TYR A   1       5.232  -8.776  11.070  0.00  0.00    +0.224 C 
ATOM     14  O   TYR A   1       4.907  -9.898  11.455  0.00  0.00    -0.287 OA
ENDBRANCH  10  13
ENDBRANCH   9  10
ENDBRANCH   1   9
TORSDOF 5
REMARK  Name = ../refined-set-2016/4ruz/4ruz_pocket.pdb
REMARK  145 active torsions:
REMARK  status: ('A' for Active; 'I' for Inactive)
REMARK    1  A    between atoms: _1  and  _3
REMARK    2  A    between atoms: _3  and  _4
REMARK    3  A    between atoms: _3  and  _6
REMARK    4  A    between atoms: _6  and  _7
REMARK    5  A    between atoms: _17  and  _19
REMARK    6  A    between atoms: _19  and  _20
REMARK    7  A    between atoms: _19  and  _22
REMARK    8  A    between atoms: _22  and  _23
REMARK    9  A    between atoms: _28  and  _29
REMARK   10  A    between atoms: _31  and  _33
REMARK   11  A    between atoms: _33  and  _34
REMARK   12  A    between atoms: _33  and  _36
REMARK   13  A    between atoms: _36  and  _37
REMARK   14  A    between atoms: _40  and  _41
REMARK   15  A    between atoms: _46  and  _48
REMARK   16  A    between atoms: _48  and  _49
REMARK   17  A    between atoms: _48  and  _51
REMARK   18  A    between atoms: _51  and  _52
REMARK   19  A    between atoms: _57  and  _59
REMARK   20  A    between atoms: _59  and  _60
REMARK   21  A    between atoms: _63  and  _65
REMARK   22  A    between atoms: _65  and  _66
REMARK   23  A    between atoms: _65  and  _68
REMARK   24  A    between atoms: _68  and  _69
REMARK   25  A    between atoms: _74  and  _76
REMARK   26  A    between atoms: _76  and  _77
REMARK   27  A    between atoms: _76  and  _79
REMARK   28  A    between atoms: _79  and  _80
REMARK   29  A    between atoms: _83  and  _85
REMARK   30  A    between atoms: _85  and  _86
REMARK   31  A    between atoms: _85  and  _88
REMARK   32  A    between atoms: _88  and  _89
REMARK   33  A    between atoms: _89  and  _90
REMARK   34  A    between atoms: _95  and  _97
REMARK   35  A    between atoms: _97  and  _98
REMARK   36  A    between atoms: _97  and  _100
REMARK   37  A    between atoms: _100  and  _101
REMARK   38  A    between atoms: _107  and  _109
REMARK   39  A    between atoms: _120  and  _123
REMARK   40  A    between atoms: _123  and  _124
REMARK   41  A    between atoms: _132  and  _133
REMARK   42  A    between atoms: _141  and  _143
REMARK   43  A    between atoms: _143  and  _144
REMARK   44  A    between atoms: _143  and  _146
REMARK   45  A    between atoms: _146  and  _147
REMARK   46  A    between atoms: _147  and  _148
REMARK   47  A    between atoms: _151  and  _153
REMARK   48  A    between atoms: _153  and  _154
REMARK   49  A    between atoms: _153  and  _156
REMARK   50  A    between atoms: _156  and  _157
REMARK   51  A    between atoms: _162  and  _164
REMARK   52  A    between atoms: _164  and  _165
REMARK   53  A    between atoms: _164  and  _167
REMARK   54  A    between atoms: _167  and  _168
REMARK   55  A    between atoms: _168  and  _169
REMARK   56  A    between atoms: _172  and  _174
REMARK   57  A    between atoms: _174  and  _175
REMARK   58  A    between atoms: _174  and  _177
REMARK   59  A    between atoms: _177  and  _178
REMARK   60  A    between atoms: _181  and  _183
REMARK   61  A    between atoms: _183  and  _184
REMARK   62  A    between atoms: _183  and  _186
REMARK   63  A    between atoms: _186  and  _187
REMARK   64  A    between atoms: _188  and  ZN_408
REMARK   65  A    between atoms: _192  and  _194
REMARK   66  A    between atoms: _194  and  _195
REMARK   67  A    between atoms: _194  and  _197
REMARK   68  A    between atoms: _197  and  _198
REMARK   69  A    between atoms: _201  and  _203
REMARK   70  A    between atoms: _203  and  _204
REMARK   71  A    between atoms: _203  and  _206
REMARK   72  A    between atoms: _209  and  _211
REMARK   73  A    between atoms: _211  and  _212
REMARK   74  A    between atoms: _211  and  _214
REMARK   75  A    between atoms: _214  and  _215
REMARK   76  A    between atoms: _220  and  _222
REMARK   77  A    between atoms: _222  and  _223
REMARK   78  A    between atoms: _222  and  _225
REMARK   79  A    between atoms: _225  and  _226
REMARK   80  A    between atoms: _232  and  _234
REMARK   81  A    between atoms: _234  and  _235
REMARK   82  A    between atoms: _234  and  _237
REMARK   83  A    between atoms: _240  and  _242
REMARK   84  A    between atoms: _242  and  _243
REMARK   85  A    between atoms: _242  and  _245
REMARK   86  A    between atoms: _245  and  _246
REMARK   87  A    between atoms: _249  and  _251
REMARK   88  A    between atoms: _251  and  _252
REMARK   89  A    between atoms: _255  and  _257
REMARK   90  A    between atoms: _257  and  _258
REMARK   91  A    between atoms: _257  and  _260
REMARK   92  A    between atoms: _263  and  _265
REMARK   93  A    between atoms: _265  and  _266
REMARK   94  A    between atoms: _265  and  _268
REMARK   95  A    between atoms: _268  and  _269
REMARK   96  A    between atoms: _272  and  _274
REMARK   97  A    between atoms: _274  and  _275
REMARK   98  A    between atoms: _277  and  _279
REMARK   99  A    between atoms: _279  and  _280
REMARK  100  A    between atoms: _282  and  _284
REMARK  101  A    between atoms: _284  and  _285
REMARK  102  A    between atoms: _284  and  _287
REMARK  103  A    between atoms: _287  and  _288
REMARK  104  A    between atoms: _290  and  _292
REMARK  105  A    between atoms: _292  and  _293
REMARK  106  A    between atoms: _292  and  _295
REMARK  107  A    between atoms: _295  and  _296
REMARK  108  A    between atoms: _299  and  _301
REMARK  109  A    between atoms: _301  and  _302
REMARK  110  A    between atoms: _301  and  _304
REMARK  111  A    between atoms: _304  and  _305
REMARK  112  A    between atoms: _308  and  _310
REMARK  113  A    between atoms: _310  and  _311
REMARK  114  A    between atoms: _310  and  _313
REMARK  115  A    between atoms: _313  and  _314
REMARK  116  A    between atoms: _318  and  _319
REMARK  117  A    between atoms: _325  and  _326
REMARK  118  A    between atoms: _331  and  _333
REMARK  119  A    between atoms: _333  and  _334
REMARK  120  A    between atoms: _333  and  _336
REMARK  121  A    between atoms: _336  and  _337
REMARK  122  A    between atoms: _340  and  _342
REMARK  123  A    between atoms: _342  and  _343
REMARK  124  A    between atoms: _342  and  _345
REMARK  125  A    between atoms: _345  and  _346
REMARK  126  A    between atoms: _349  and  _351
REMARK  127  A    between atoms: _351  and  _352
REMARK  128  A    between atoms: _351  and  _354
REMARK  129  A    between atoms: _356  and  _358
REMARK  130  A    between atoms: _358  and  _359
REMARK  131  A    between atoms: _358  and  _361
REMARK  132  A    between atoms: _364  and  _366
REMARK  133  A    between atoms: _366  and  _367
REMARK  134  A    between atoms: _366  and  _369
REMARK  135  A    between atoms: _369  and  _370
REMARK  136  A    between atoms: _380  and  _382
REMARK  137  A    between atoms: _382  and  _383
REMARK  138  A    between atoms: _382  and  _385
REMARK  139  A    between atoms: _385  and  _386
REMARK  140  A    between atoms: _391  and  _393
REMARK  141  A    between atoms: _393  and  _394
REMARK  142  A    between atoms: _393  and  _396
REMARK  143  A    between atoms: _396  and  _397
REMARK  144  A    between atoms: _397  and  _398
REMARK  145  A    between atoms: _398  and  _399
REMARK                            x       y       z     vdW  Elec       q    Type
REMARK                         _______ _______ _______ _____ _____    ______ ____
ROOT
ATOM      1  C   SER A   1      -2.298  -2.909  23.093  0.00  0.00    +0.244 C 
ATOM      2  N   PRO A   2      -2.949  -4.051  22.833  0.00  0.00    -0.273 N 
ATOM      3  CA  PRO A   2      -4.108  -4.601  23.533  0.00  0.00    +0.140 C 
ATOM      4  CB  PRO A   2      -4.617  -5.650  22.551  0.00  0.00    +0.030 C 
ATOM      5  CG  PRO A   2      -3.320  -6.210  21.969  0.00  0.00    +0.024 C 
ATOM      6  CD  PRO A   2      -2.498  -4.945  21.744  0.00  0.00    +0.094 C 
ATOM      7  O   SER A   1      -1.344  -2.534  22.426  0.00  0.00    -0.273 OA
ENDROOT
BRANCH   3   8
ATOM      8  C   PRO A   2      -3.716  -5.250  24.854  0.00  0.00    +0.227 C 
ATOM      9  O   PRO A   2      -2.532  -5.264  25.218  0.00  0.00    -0.286 OA
ENDBRANCH   3   8
BRANCH   1  10
ATOM     10  CA  SER A   1      -2.820  -2.040  24.228  0.00  0.00    +0.175 C 
BRANCH  10  11
ATOM     11  N   SER A   1      -1.768  -1.147  24.702  0.00  0.00    -0.236 NA
ATOM     12  H   SER A   1      -1.289  -0.532  24.014  0.00  0.00    +0.142 HD
ENDBRANCH  10  11
BRANCH  10  13
ATOM     13  CB  SER A   1      -4.026  -1.237  23.737  0.00  0.00    +0.163 C 
BRANCH  13  14
ATOM     14  OG  SER A   1      -4.594  -0.469  24.785  0.00  0.00    -0.380 OA
ATOM     15  H   SER A   1      -4.891  -1.073  25.511  0.00  0.00    +0.211 HD
ENDBRANCH  13  14
ENDBRANCH  10  13
ENDBRANCH   1  10
TORSDOF 5
REMARK  Name = ../refined-set-2016/4ruz/4ruz_pocket.pdb
REMARK  145 active torsions:
REMARK  status: ('A' for Active; 'I' for Inactive)
REMARK    1  A    between atoms: _1  and  _3
REMARK    2  A    between atoms: _3  and  _4
REMARK    3  A    between atoms: _3  and  _6
REMARK    4  A    between atoms: _6  and  _7
REMARK    5  A    between atoms: _17  and  _19
REMARK    6  A    between atoms: _19  and  _20
REMARK    7  A    between atoms: _19  and  _22
REMARK    8  A    between atoms: _22  and  _23
REMARK    9  A    between atoms: _28  and  _29
REMARK   10  A    between atoms: _31  and  _33
REMARK   11  A    between atoms: _33  and  _34
REMARK   12  A    between atoms: _33  and  _36
REMARK   13  A    between atoms: _36  and  _37
REMARK   14  A    between atoms: _40  and  _41
REMARK   15  A    between atoms: _46  and  _48
REMARK   16  A    between atoms: _48  and  _49
REMARK   17  A    between atoms: _48  and  _51
REMARK   18  A    between atoms: _51  and  _52
REMARK   19  A    between atoms: _57  and  _59
REMARK   20  A    between atoms: _59  and  _60
REMARK   21  A    between atoms: _63  and  _65
REMARK   22  A    between atoms: _65  and  _66
REMARK   23  A    between atoms: _65  and  _68
REMARK   24  A    between atoms: _68  and  _69
REMARK   25  A    between atoms: _74  and  _76
REMARK   26  A    between atoms: _76  and  _77
REMARK   27  A    between atoms: _76  and  _79
REMARK   28  A    between atoms: _79  and  _80
REMARK   29  A    between atoms: _83  and  _85
REMARK   30  A    between atoms: _85  and  _86
REMARK   31  A    between atoms: _85  and  _88
REMARK   32  A    between atoms: _88  and  _89
REMARK   33  A    between atoms: _89  and  _90
REMARK   34  A    between atoms: _95  and  _97
REMARK   35  A    between atoms: _97  and  _98
REMARK   36  A    between atoms: _97  and  _100
REMARK   37  A    between atoms: _100  and  _101
REMARK   38  A    between atoms: _107  and  _109
REMARK   39  A    between atoms: _120  and  _123
REMARK   40  A    between atoms: _123  and  _124
REMARK   41  A    between atoms: _132  and  _133
REMARK   42  A    between atoms: _141  and  _143
REMARK   43  A    between atoms: _143  and  _144
REMARK   44  A    between atoms: _143  and  _146
REMARK   45  A    between atoms: _146  and  _147
REMARK   46  A    between atoms: _147  and  _148
REMARK   47  A    between atoms: _151  and  _153
REMARK   48  A    between atoms: _153  and  _154
REMARK   49  A    between atoms: _153  and  _156
REMARK   50  A    between atoms: _156  and  _157
REMARK   51  A    between atoms: _162  and  _164
REMARK   52  A    between atoms: _164  and  _165
REMARK   53  A    between atoms: _164  and  _167
REMARK   54  A    between atoms: _167  and  _168
REMARK   55  A    between atoms: _168  and  _169
REMARK   56  A    between atoms: _172  and  _174
REMARK   57  A    between atoms: _174  and  _175
REMARK   58  A    between atoms: _174  and  _177
REMARK   59  A    between atoms: _177  and  _178
REMARK   60  A    between atoms: _181  and  _183
REMARK   61  A    between atoms: _183  and  _184
REMARK   62  A    between atoms: _183  and  _186
REMARK   63  A    between atoms: _186  and  _187
REMARK   64  A    between atoms: _188  and  ZN_408
REMARK   65  A    between atoms: _192  and  _194
REMARK   66  A    between atoms: _194  and  _195
REMARK   67  A    between atoms: _194  and  _197
REMARK   68  A    between atoms: _197  and  _198
REMARK   69  A    between atoms: _201  and  _203
REMARK   70  A    between atoms: _203  and  _204
REMARK   71  A    between atoms: _203  and  _206
REMARK   72  A    between atoms: _209  and  _211
REMARK   73  A    between atoms: _211  and  _212
REMARK   74  A    between atoms: _211  and  _214
REMARK   75  A    between atoms: _214  and  _215
REMARK   76  A    between atoms: _220  and  _222
REMARK   77  A    between atoms: _222  and  _223
REMARK   78  A    between atoms: _222  and  _225
REMARK   79  A    between atoms: _225  and  _226
REMARK   80  A    between atoms: _232  and  _234
REMARK   81  A    between atoms: _234  and  _235
REMARK   82  A    between atoms: _234  and  _237
REMARK   83  A    between atoms: _240  and  _242
REMARK   84  A    between atoms: _242  and  _243
REMARK   85  A    between atoms: _242  and  _245
REMARK   86  A    between atoms: _245  and  _246
REMARK   87  A    between atoms: _249  and  _251
REMARK   88  A    between atoms: _251  and  _252
REMARK   89  A    between atoms: _255  and  _257
REMARK   90  A    between atoms: _257  and  _258
REMARK   91  A    between atoms: _257  and  _260
REMARK   92  A    between atoms: _263  and  _265
REMARK   93  A    between atoms: _265  and  _266
REMARK   94  A    between atoms: _265  and  _268
REMARK   95  A    between atoms: _268  and  _269
REMARK   96  A    between atoms: _272  and  _274
REMARK   97  A    between atoms: _274  and  _275
REMARK   98  A    between atoms: _277  and  _279
REMARK   99  A    between atoms: _279  and  _280
REMARK  100  A    between atoms: _282  and  _284
REMARK  101  A    between atoms: _284  and  _285
REMARK  102  A    between atoms: _284  and  _287
REMARK  103  A    between atoms: _287  and  _288
REMARK  104  A    between atoms: _290  and  _292
REMARK  105  A    between atoms: _292  and  _293
REMARK  106  A    between atoms: _292  and  _295
REMARK  107  A    between atoms: _295  and  _296
REMARK  108  A    between atoms: _299  and  _301
REMARK  109  A    between atoms: _301  and  _302
REMARK  110  A    between atoms: _301  and  _304
REMARK  111  A    between atoms: _304  and  _305
REMARK  112  A    between atoms: _308  and  _310
REMARK  113  A    between atoms: _310  and  _311
REMARK  114  A    between atoms: _310  and  _313
REMARK  115  A    between atoms: _313  and  _314
REMARK  116  A    between atoms: _318  and  _319
REMARK  117  A    between atoms: _325  and  _326
REMARK  118  A    between atoms: _331  and  _333
REMARK  119  A    between atoms: _333  and  _334
REMARK  120  A    between atoms: _333  and  _336
REMARK  121  A    between atoms: _336  and  _337
REMARK  122  A    between atoms: _340  and  _342
REMARK  123  A    between atoms: _342  and  _343
REMARK  124  A    between atoms: _342  and  _345
REMARK  125  A    between atoms: _345  and  _346
REMARK  126  A    between atoms: _349  and  _351
REMARK  127  A    between atoms: _351  and  _352
REMARK  128  A    between atoms: _351  and  _354
REMARK  129  A    between atoms: _356  and  _358
REMARK  130  A    between atoms: _358  and  _359
REMARK  131  A    between atoms: _358  and  _361
REMARK  132  A    between atoms: _364  and  _366
REMARK  133  A    between atoms: _366  and  _367
REMARK  134  A    between atoms: _366  and  _369
REMARK  135  A    between atoms: _369  and  _370
REMARK  136  A    between atoms: _380  and  _382
REMARK  137  A    between atoms: _382  and  _383
REMARK  138  A    between atoms: _382  and  _385
REMARK  139  A    between atoms: _385  and  _386
REMARK  140  A    between atoms: _391  and  _393
REMARK  141  A    between atoms: _393  and  _394
REMARK  142  A    between atoms: _393  and  _396
REMARK  143  A    between atoms: _396  and  _397
REMARK  144  A    between atoms: _397  and  _398
REMARK  145  A    between atoms: _398  and  _399
REMARK                            x       y       z     vdW  Elec       q    Type
REMARK                         _______ _______ _______ _____ _____    ______ ____
ROOT
ATOM      1  CB  ASN A   1      -2.605   2.289   5.272  0.00  0.00    +0.110 C 
ENDROOT
BRANCH   1   2
ATOM      2  CG  ASN A   1      -3.005   1.440   6.461  0.00  0.00    +0.221 C 
ATOM      3  ND2 ASN A   1      -3.734   2.040   7.393  0.00  0.00    -0.329 N 
ATOM      4 HD21 ASN A   1      -4.047   1.509   8.231  0.00  0.00    +0.145 HD
ATOM      5 HD22 ASN A   1      -3.993   3.042   7.286  0.00  0.00    +0.145 HD
ATOM      6  OD1 ASN A   1      -2.670   0.254   6.538  0.00  0.00    -0.275 OA
ENDBRANCH   1   2
BRANCH   1   7
ATOM      7  CA  ASN A   1      -2.241   1.448   4.038  0.00  0.00    +0.142 C 
BRANCH   7   8
ATOM      8  N   ASN A   1      -3.374   0.618   3.614  0.00  0.00    -0.239 NA
ATOM      9  H   ASN A   1      -3.934   0.101   4.321  0.00  0.00    +0.142 HD
ENDBRANCH   7   8
BRANCH   7  10
ATOM     10  C   ASN A   1      -1.002   0.618   4.322  0.00  0.00    +0.225 C 
ATOM     11  O   ASN A   1      -0.019   1.125   4.874  0.00  0.00    -0.287 OA
ENDBRANCH   7  10
ENDBRANCH   1   7
TORSDOF 4
REMARK  Name = ../refined-set-2016/4ruz/4ruz_pocket.pdb
REMARK  145 active torsions:
REMARK  status: ('A' for Active; 'I' for Inactive)
REMARK    1  A    between atoms: _1  and  _3
REMARK    2  A    between atoms: _3  and  _4
REMARK    3  A    between atoms: _3  and  _6
REMARK    4  A    between atoms: _6  and  _7
REMARK    5  A    between atoms: _17  and  _19
REMARK    6  A    between atoms: _19  and  _20
REMARK    7  A    between atoms: _19  and  _22
REMARK    8  A    between atoms: _22  and  _23
REMARK    9  A    between atoms: _28  and  _29
REMARK   10  A    between atoms: _31  and  _33
REMARK   11  A    between atoms: _33  and  _34
REMARK   12  A    between atoms: _33  and  _36
REMARK   13  A    between atoms: _36  and  _37
REMARK   14  A    between atoms: _40  and  _41
REMARK   15  A    between atoms: _46  and  _48
REMARK   16  A    between atoms: _48  and  _49
REMARK   17  A    between atoms: _48  and  _51
REMARK   18  A    between atoms: _51  and  _52
REMARK   19  A    between atoms: _57  and  _59
REMARK   20  A    between atoms: _59  and  _60
REMARK   21  A    between atoms: _63  and  _65
REMARK   22  A    between atoms: _65  and  _66
REMARK   23  A    between atoms: _65  and  _68
REMARK   24  A    between atoms: _68  and  _69
REMARK   25  A    between atoms: _74  and  _76
REMARK   26  A    between atoms: _76  and  _77
REMARK   27  A    between atoms: _76  and  _79
REMARK   28  A    between atoms: _79  and  _80
REMARK   29  A    between atoms: _83  and  _85
REMARK   30  A    between atoms: _85  and  _86
REMARK   31  A    between atoms: _85  and  _88
REMARK   32  A    between atoms: _88  and  _89
REMARK   33  A    between atoms: _89  and  _90
REMARK   34  A    between atoms: _95  and  _97
REMARK   35  A    between atoms: _97  and  _98
REMARK   36  A    between atoms: _97  and  _100
REMARK   37  A    between atoms: _100  and  _101
REMARK   38  A    between atoms: _107  and  _109
REMARK   39  A    between atoms: _120  and  _123
REMARK   40  A    between atoms: _123  and  _124
REMARK   41  A    between atoms: _132  and  _133
REMARK   42  A    between atoms: _141  and  _143
REMARK   43  A    between atoms: _143  and  _144
REMARK   44  A    between atoms: _143  and  _146
REMARK   45  A    between atoms: _146  and  _147
REMARK   46  A    between atoms: _147  and  _148
REMARK   47  A    between atoms: _151  and  _153
REMARK   48  A    between atoms: _153  and  _154
REMARK   49  A    between atoms: _153  and  _156
REMARK   50  A    between atoms: _156  and  _157
REMARK   51  A    between atoms: _162  and  _164
REMARK   52  A    between atoms: _164  and  _165
REMARK   53  A    between atoms: _164  and  _167
REMARK   54  A    between atoms: _167  and  _168
REMARK   55  A    between atoms: _168  and  _169
REMARK   56  A    between atoms: _172  and  _174
REMARK   57  A    between atoms: _174  and  _175
REMARK   58  A    between atoms: _174  and  _177
REMARK   59  A    between atoms: _177  and  _178
REMARK   60  A    between atoms: _181  and  _183
REMARK   61  A    between atoms: _183  and  _184
REMARK   62  A    between atoms: _183  and  _186
REMARK   63  A    between atoms: _186  and  _187
REMARK   64  A    between atoms: _188  and  ZN_408
REMARK   65  A    between atoms: _192  and  _194
REMARK   66  A    between atoms: _194  and  _195
REMARK   67  A    between atoms: _194  and  _197
REMARK   68  A    between atoms: _197  and  _198
REMARK   69  A    between atoms: _201  and  _203
REMARK   70  A    between atoms: _203  and  _204
REMARK   71  A    between atoms: _203  and  _206
REMARK   72  A    between atoms: _209  and  _211
REMARK   73  A    between atoms: _211  and  _212
REMARK   74  A    between atoms: _211  and  _214
REMARK   75  A    between atoms: _214  and  _215
REMARK   76  A    between atoms: _220  and  _222
REMARK   77  A    between atoms: _222  and  _223
REMARK   78  A    between atoms: _222  and  _225
REMARK   79  A    between atoms: _225  and  _226
REMARK   80  A    between atoms: _232  and  _234
REMARK   81  A    between atoms: _234  and  _235
REMARK   82  A    between atoms: _234  and  _237
REMARK   83  A    between atoms: _240  and  _242
REMARK   84  A    between atoms: _242  and  _243
REMARK   85  A    between atoms: _242  and  _245
REMARK   86  A    between atoms: _245  and  _246
REMARK   87  A    between atoms: _249  and  _251
REMARK   88  A    between atoms: _251  and  _252
REMARK   89  A    between atoms: _255  and  _257
REMARK   90  A    between atoms: _257  and  _258
REMARK   91  A    between atoms: _257  and  _260
REMARK   92  A    between atoms: _263  and  _265
REMARK   93  A    between atoms: _265  and  _266
REMARK   94  A    between atoms: _265  and  _268
REMARK   95  A    between atoms: _268  and  _269
REMARK   96  A    between atoms: _272  and  _274
REMARK   97  A    between atoms: _274  and  _275
REMARK   98  A    between atoms: _277  and  _279
REMARK   99  A    between atoms: _279  and  _280
REMARK  100  A    between atoms: _282  and  _284
REMARK  101  A    between atoms: _284  and  _285
REMARK  102  A    between atoms: _284  and  _287
REMARK  103  A    between atoms: _287  and  _288
REMARK  104  A    between atoms: _290  and  _292
REMARK  105  A    between atoms: _292  and  _293
REMARK  106  A    between atoms: _292  and  _295
REMARK  107  A    between atoms: _295  and  _296
REMARK  108  A    between atoms: _299  and  _301
REMARK  109  A    between atoms: _301  and  _302
REMARK  110  A    between atoms: _301  and  _304
REMARK  111  A    between atoms: _304  and  _305
REMARK  112  A    between atoms: _308  and  _310
REMARK  113  A    between atoms: _310  and  _311
REMARK  114  A    between atoms: _310  and  _313
REMARK  115  A    between atoms: _313  and  _314
REMARK  116  A    between atoms: _318  and  _319
REMARK  117  A    between atoms: _325  and  _326
REMARK  118  A    between atoms: _331  and  _333
REMARK  119  A    between atoms: _333  and  _334
REMARK  120  A    between atoms: _333  and  _336
REMARK  121  A    between atoms: _336  and  _337
REMARK  122  A    between atoms: _340  and  _342
REMARK  123  A    between atoms: _342  and  _343
REMARK  124  A    between atoms: _342  and  _345
REMARK  125  A    between atoms: _345  and  _346
REMARK  126  A    between atoms: _349  and  _351
REMARK  127  A    between atoms: _351  and  _352
REMARK  128  A    between atoms: _351  and  _354
REMARK  129  A    between atoms: _356  and  _358
REMARK  130  A    between atoms: _358  and  _359
REMARK  131  A    between atoms: _358  and  _361
REMARK  132  A    between atoms: _364  and  _366
REMARK  133  A    between atoms: _366  and  _367
REMARK  134  A    between atoms: _366  and  _369
REMARK  135  A    between atoms: _369  and  _370
REMARK  136  A    between atoms: _380  and  _382
REMARK  137  A    between atoms: _382  and  _383
REMARK  138  A    between atoms: _382  and  _385
REMARK  139  A    between atoms: _385  and  _386
REMARK  140  A    between atoms: _391  and  _393
REMARK  141  A    between atoms: _393  and  _394
REMARK  142  A    between atoms: _393  and  _396
REMARK  143  A    between atoms: _396  and  _397
REMARK  144  A    between atoms: _397  and  _398
REMARK  145  A    between atoms: _398  and  _399
REMARK                            x       y       z     vdW  Elec       q    Type
REMARK                         _______ _______ _______ _____ _____    ______ ____
ROOT
ATOM      1  CA  ALA A   1      -4.618  -3.011   7.317  0.00  0.00    +0.133 C 
ATOM      2  CB  ALA A   1      -5.257  -2.732   8.681  0.00  0.00    +0.027 C 
ENDROOT
BRANCH   1   3
ATOM      3  N   ALA A   1      -3.234  -2.559   7.273  0.00  0.00    -0.239 NA
ATOM      4  H   ALA A   1      -3.020  -1.688   6.746  0.00  0.00    +0.142 HD
ENDBRANCH   1   3
BRANCH   1   5
ATOM      5  C   ALA A   1      -5.345  -2.270   6.201  0.00  0.00    +0.224 C 
ATOM      6  O   ALA A   1      -4.698  -1.625   5.369  0.00  0.00    -0.287 OA
ENDBRANCH   1   5
TORSDOF 2
REMARK  Name = ../refined-set-2016/4ruz/4ruz_pocket.pdb
REMARK  145 active torsions:
REMARK  status: ('A' for Active; 'I' for Inactive)
REMARK    1  A    between atoms: _1  and  _3
REMARK    2  A    between atoms: _3  and  _4
REMARK    3  A    between atoms: _3  and  _6
REMARK    4  A    between atoms: _6  and  _7
REMARK    5  A    between atoms: _17  and  _19
REMARK    6  A    between atoms: _19  and  _20
REMARK    7  A    between atoms: _19  and  _22
REMARK    8  A    between atoms: _22  and  _23
REMARK    9  A    between atoms: _28  and  _29
REMARK   10  A    between atoms: _31  and  _33
REMARK   11  A    between atoms: _33  and  _34
REMARK   12  A    between atoms: _33  and  _36
REMARK   13  A    between atoms: _36  and  _37
REMARK   14  A    between atoms: _40  and  _41
REMARK   15  A    between atoms: _46  and  _48
REMARK   16  A    between atoms: _48  and  _49
REMARK   17  A    between atoms: _48  and  _51
REMARK   18  A    between atoms: _51  and  _52
REMARK   19  A    between atoms: _57  and  _59
REMARK   20  A    between atoms: _59  and  _60
REMARK   21  A    between atoms: _63  and  _65
REMARK   22  A    between atoms: _65  and  _66
REMARK   23  A    between atoms: _65  and  _68
REMARK   24  A    between atoms: _68  and  _69
REMARK   25  A    between atoms: _74  and  _76
REMARK   26  A    between atoms: _76  and  _77
REMARK   27  A    between atoms: _76  and  _79
REMARK   28  A    between atoms: _79  and  _80
REMARK   29  A    between atoms: _83  and  _85
REMARK   30  A    between atoms: _85  and  _86
REMARK   31  A    between atoms: _85  and  _88
REMARK   32  A    between atoms: _88  and  _89
REMARK   33  A    between atoms: _89  and  _90
REMARK   34  A    between atoms: _95  and  _97
REMARK   35  A    between atoms: _97  and  _98
REMARK   36  A    between atoms: _97  and  _100
REMARK   37  A    between atoms: _100  and  _101
REMARK   38  A    between atoms: _107  and  _109
REMARK   39  A    between atoms: _120  and  _123
REMARK   40  A    between atoms: _123  and  _124
REMARK   41  A    between atoms: _132  and  _133
REMARK   42  A    between atoms: _141  and  _143
REMARK   43  A    between atoms: _143  and  _144
REMARK   44  A    between atoms: _143  and  _146
REMARK   45  A    between atoms: _146  and  _147
REMARK   46  A    between atoms: _147  and  _148
REMARK   47  A    between atoms: _151  and  _153
REMARK   48  A    between atoms: _153  and  _154
REMARK   49  A    between atoms: _153  and  _156
REMARK   50  A    between atoms: _156  and  _157
REMARK   51  A    between atoms: _162  and  _164
REMARK   52  A    between atoms: _164  and  _165
REMARK   53  A    between atoms: _164  and  _167
REMARK   54  A    between atoms: _167  and  _168
REMARK   55  A    between atoms: _168  and  _169
REMARK   56  A    between atoms: _172  and  _174
REMARK   57  A    between atoms: _174  and  _175
REMARK   58  A    between atoms: _174  and  _177
REMARK   59  A    between atoms: _177  and  _178
REMARK   60  A    between atoms: _181  and  _183
REMARK   61  A    between atoms: _183  and  _184
REMARK   62  A    between atoms: _183  and  _186
REMARK   63  A    between atoms: _186  and  _187
REMARK   64  A    between atoms: _188  and  ZN_408
REMARK   65  A    between atoms: _192  and  _194
REMARK   66  A    between atoms: _194  and  _195
REMARK   67  A    between atoms: _194  and  _197
REMARK   68  A    between atoms: _197  and  _198
REMARK   69  A    between atoms: _201  and  _203
REMARK   70  A    between atoms: _203  and  _204
REMARK   71  A    between atoms: _203  and  _206
REMARK   72  A    between atoms: _209  and  _211
REMARK   73  A    between atoms: _211  and  _212
REMARK   74  A    between atoms: _211  and  _214
REMARK   75  A    between atoms: _214  and  _215
REMARK   76  A    between atoms: _220  and  _222
REMARK   77  A    between atoms: _222  and  _223
REMARK   78  A    between atoms: _222  and  _225
REMARK   79  A    between atoms: _225  and  _226
REMARK   80  A    between atoms: _232  and  _234
REMARK   81  A    between atoms: _234  and  _235
REMARK   82  A    between atoms: _234  and  _237
REMARK   83  A    between atoms: _240  and  _242
REMARK   84  A    between atoms: _242  and  _243
REMARK   85  A    between atoms: _242  and  _245
REMARK   86  A    between atoms: _245  and  _246
REMARK   87  A    between atoms: _249  and  _251
REMARK   88  A    between atoms: _251  and  _252
REMARK   89  A    between atoms: _255  and  _257
REMARK   90  A    between atoms: _257  and  _258
REMARK   91  A    between atoms: _257  and  _260
REMARK   92  A    between atoms: _263  and  _265
REMARK   93  A    between atoms: _265  and  _266
REMARK   94  A    between atoms: _265  and  _268
REMARK   95  A    between atoms: _268  and  _269
REMARK   96  A    between atoms: _272  and  _274
REMARK   97  A    between atoms: _274  and  _275
REMARK   98  A    between atoms: _277  and  _279
REMARK   99  A    between atoms: _279  and  _280
REMARK  100  A    between atoms: _282  and  _284
REMARK  101  A    between atoms: _284  and  _285
REMARK  102  A    between atoms: _284  and  _287
REMARK  103  A    between atoms: _287  and  _288
REMARK  104  A    between atoms: _290  and  _292
REMARK  105  A    between atoms: _292  and  _293
REMARK  106  A    between atoms: _292  and  _295
REMARK  107  A    between atoms: _295  and  _296
REMARK  108  A    between atoms: _299  and  _301
REMARK  109  A    between atoms: _301  and  _302
REMARK  110  A    between atoms: _301  and  _304
REMARK  111  A    between atoms: _304  and  _305
REMARK  112  A    between atoms: _308  and  _310
REMARK  113  A    between atoms: _310  and  _311
REMARK  114  A    between atoms: _310  and  _313
REMARK  115  A    between atoms: _313  and  _314
REMARK  116  A    between atoms: _318  and  _319
REMARK  117  A    between atoms: _325  and  _326
REMARK  118  A    between atoms: _331  and  _333
REMARK  119  A    between atoms: _333  and  _334
REMARK  120  A    between atoms: _333  and  _336
REMARK  121  A    between atoms: _336  and  _337
REMARK  122  A    between atoms: _340  and  _342
REMARK  123  A    between atoms: _342  and  _343
REMARK  124  A    between atoms: _342  and  _345
REMARK  125  A    between atoms: _345  and  _346
REMARK  126  A    between atoms: _349  and  _351
REMARK  127  A    between atoms: _351  and  _352
REMARK  128  A    between atoms: _351  and  _354
REMARK  129  A    between atoms: _356  and  _358
REMARK  130  A    between atoms: _358  and  _359
REMARK  131  A    between atoms: _358  and  _361
REMARK  132  A    between atoms: _364  and  _366
REMARK  133  A    between atoms: _366  and  _367
REMARK  134  A    between atoms: _366  and  _369
REMARK  135  A    between atoms: _369  and  _370
REMARK  136  A    between atoms: _380  and  _382
REMARK  137  A    between atoms: _382  and  _383
REMARK  138  A    between atoms: _382  and  _385
REMARK  139  A    between atoms: _385  and  _386
REMARK  140  A    between atoms: _391  and  _393
REMARK  141  A    between atoms: _393  and  _394
REMARK  142  A    between atoms: _393  and  _396
REMARK  143  A    between atoms: _396  and  _397
REMARK  144  A    between atoms: _397  and  _398
REMARK  145  A    between atoms: _398  and  _399
REMARK                            x       y       z     vdW  Elec       q    Type
REMARK                         _______ _______ _______ _____ _____    ______ ____
ROOT
ATOM      1  CB  ASN A   1      -8.558   2.859   6.964  0.00  0.00    +0.110 C 
ENDROOT
BRANCH   1   2
ATOM      2  CG  ASN A   1      -7.521   2.620   8.016  0.00  0.00    +0.221 C 
ATOM      3  OD1 ASN A   1      -7.447   1.548   8.592  0.00  0.00    -0.275 OA
ATOM      4  ND2 ASN A   1      -6.701   3.639   8.276  0.00  0.00    -0.329 N 
ATOM      5 HD21 ASN A   1      -5.959   3.538   8.997  0.00  0.00    +0.145 HD
ATOM      6 HD22 ASN A   1      -6.804   4.535   7.757  0.00  0.00    +0.145 HD
ENDBRANCH   1   2
BRANCH   1   7
ATOM      7  CA  ASN A   1      -9.306   1.592   6.558  0.00  0.00    +0.142 C 
BRANCH   7   8
ATOM      8  N   ASN A   1      -8.444   0.675   5.828  0.00  0.00    -0.239 NA
ATOM      9  H   ASN A   1      -7.873   1.036   5.038  0.00  0.00    +0.142 HD
ENDBRANCH   7   8
BRANCH   7  10
ATOM     10  C   ASN A   1     -10.498   2.009   5.726  0.00  0.00    +0.225 C 
ATOM     11  O   ASN A   1     -10.335   2.470   4.599  0.00  0.00    -0.287 OA
ENDBRANCH   7  10
ENDBRANCH   1   7
TORSDOF 4
REMARK  Name = ../refined-set-2016/4ruz/4ruz_pocket.pdb
REMARK  145 active torsions:
REMARK  status: ('A' for Active; 'I' for Inactive)
REMARK    1  A    between atoms: _1  and  _3
REMARK    2  A    between atoms: _3  and  _4
REMARK    3  A    between atoms: _3  and  _6
REMARK    4  A    between atoms: _6  and  _7
REMARK    5  A    between atoms: _17  and  _19
REMARK    6  A    between atoms: _19  and  _20
REMARK    7  A    between atoms: _19  and  _22
REMARK    8  A    between atoms: _22  and  _23
REMARK    9  A    between atoms: _28  and  _29
REMARK   10  A    between atoms: _31  and  _33
REMARK   11  A    between atoms: _33  and  _34
REMARK   12  A    between atoms: _33  and  _36
REMARK   13  A    between atoms: _36  and  _37
REMARK   14  A    between atoms: _40  and  _41
REMARK   15  A    between atoms: _46  and  _48
REMARK   16  A    between atoms: _48  and  _49
REMARK   17  A    between atoms: _48  and  _51
REMARK   18  A    between atoms: _51  and  _52
REMARK   19  A    between atoms: _57  and  _59
REMARK   20  A    between atoms: _59  and  _60
REMARK   21  A    between atoms: _63  and  _65
REMARK   22  A    between atoms: _65  and  _66
REMARK   23  A    between atoms: _65  and  _68
REMARK   24  A    between atoms: _68  and  _69
REMARK   25  A    between atoms: _74  and  _76
REMARK   26  A    between atoms: _76  and  _77
REMARK   27  A    between atoms: _76  and  _79
REMARK   28  A    between atoms: _79  and  _80
REMARK   29  A    between atoms: _83  and  _85
REMARK   30  A    between atoms: _85  and  _86
REMARK   31  A    between atoms: _85  and  _88
REMARK   32  A    between atoms: _88  and  _89
REMARK   33  A    between atoms: _89  and  _90
REMARK   34  A    between atoms: _95  and  _97
REMARK   35  A    between atoms: _97  and  _98
REMARK   36  A    between atoms: _97  and  _100
REMARK   37  A    between atoms: _100  and  _101
REMARK   38  A    between atoms: _107  and  _109
REMARK   39  A    between atoms: _120  and  _123
REMARK   40  A    between atoms: _123  and  _124
REMARK   41  A    between atoms: _132  and  _133
REMARK   42  A    between atoms: _141  and  _143
REMARK   43  A    between atoms: _143  and  _144
REMARK   44  A    between atoms: _143  and  _146
REMARK   45  A    between atoms: _146  and  _147
REMARK   46  A    between atoms: _147  and  _148
REMARK   47  A    between atoms: _151  and  _153
REMARK   48  A    between atoms: _153  and  _154
REMARK   49  A    between atoms: _153  and  _156
REMARK   50  A    between atoms: _156  and  _157
REMARK   51  A    between atoms: _162  and  _164
REMARK   52  A    between atoms: _164  and  _165
REMARK   53  A    between atoms: _164  and  _167
REMARK   54  A    between atoms: _167  and  _168
REMARK   55  A    between atoms: _168  and  _169
REMARK   56  A    between atoms: _172  and  _174
REMARK   57  A    between atoms: _174  and  _175
REMARK   58  A    between atoms: _174  and  _177
REMARK   59  A    between atoms: _177  and  _178
REMARK   60  A    between atoms: _181  and  _183
REMARK   61  A    between atoms: _183  and  _184
REMARK   62  A    between atoms: _183  and  _186
REMARK   63  A    between atoms: _186  and  _187
REMARK   64  A    between atoms: _188  and  ZN_408
REMARK   65  A    between atoms: _192  and  _194
REMARK   66  A    between atoms: _194  and  _195
REMARK   67  A    between atoms: _194  and  _197
REMARK   68  A    between atoms: _197  and  _198
REMARK   69  A    between atoms: _201  and  _203
REMARK   70  A    between atoms: _203  and  _204
REMARK   71  A    between atoms: _203  and  _206
REMARK   72  A    between atoms: _209  and  _211
REMARK   73  A    between atoms: _211  and  _212
REMARK   74  A    between atoms: _211  and  _214
REMARK   75  A    between atoms: _214  and  _215
REMARK   76  A    between atoms: _220  and  _222
REMARK   77  A    between atoms: _222  and  _223
REMARK   78  A    between atoms: _222  and  _225
REMARK   79  A    between atoms: _225  and  _226
REMARK   80  A    between atoms: _232  and  _234
REMARK   81  A    between atoms: _234  and  _235
REMARK   82  A    between atoms: _234  and  _237
REMARK   83  A    between atoms: _240  and  _242
REMARK   84  A    between atoms: _242  and  _243
REMARK   85  A    between atoms: _242  and  _245
REMARK   86  A    between atoms: _245  and  _246
REMARK   87  A    between atoms: _249  and  _251
REMARK   88  A    between atoms: _251  and  _252
REMARK   89  A    between atoms: _255  and  _257
REMARK   90  A    between atoms: _257  and  _258
REMARK   91  A    between atoms: _257  and  _260
REMARK   92  A    between atoms: _263  and  _265
REMARK   93  A    between atoms: _265  and  _266
REMARK   94  A    between atoms: _265  and  _268
REMARK   95  A    between atoms: _268  and  _269
REMARK   96  A    between atoms: _272  and  _274
REMARK   97  A    between atoms: _274  and  _275
REMARK   98  A    between atoms: _277  and  _279
REMARK   99  A    between atoms: _279  and  _280
REMARK  100  A    between atoms: _282  and  _284
REMARK  101  A    between atoms: _284  and  _285
REMARK  102  A    between atoms: _284  and  _287
REMARK  103  A    between atoms: _287  and  _288
REMARK  104  A    between atoms: _290  and  _292
REMARK  105  A    between atoms: _292  and  _293
REMARK  106  A    between atoms: _292  and  _295
REMARK  107  A    between atoms: _295  and  _296
REMARK  108  A    between atoms: _299  and  _301
REMARK  109  A    between atoms: _301  and  _302
REMARK  110  A    between atoms: _301  and  _304
REMARK  111  A    between atoms: _304  and  _305
REMARK  112  A    between atoms: _308  and  _310
REMARK  113  A    between atoms: _310  and  _311
REMARK  114  A    between atoms: _310  and  _313
REMARK  115  A    between atoms: _313  and  _314
REMARK  116  A    between atoms: _318  and  _319
REMARK  117  A    between atoms: _325  and  _326
REMARK  118  A    between atoms: _331  and  _333
REMARK  119  A    between atoms: _333  and  _334
REMARK  120  A    between atoms: _333  and  _336
REMARK  121  A    between atoms: _336  and  _337
REMARK  122  A    between atoms: _340  and  _342
REMARK  123  A    between atoms: _342  and  _343
REMARK  124  A    between atoms: _342  and  _345
REMARK  125  A    between atoms: _345  and  _346
REMARK  126  A    between atoms: _349  and  _351
REMARK  127  A    between atoms: _351  and  _352
REMARK  128  A    between atoms: _351  and  _354
REMARK  129  A    between atoms: _356  and  _358
REMARK  130  A    between atoms: _358  and  _359
REMARK  131  A    between atoms: _358  and  _361
REMARK  132  A    between atoms: _364  and  _366
REMARK  133  A    between atoms: _366  and  _367
REMARK  134  A    between atoms: _366  and  _369
REMARK  135  A    between atoms: _369  and  _370
REMARK  136  A    between atoms: _380  and  _382
REMARK  137  A    between atoms: _382  and  _383
REMARK  138  A    between atoms: _382  and  _385
REMARK  139  A    between atoms: _385  and  _386
REMARK  140  A    between atoms: _391  and  _393
REMARK  141  A    between atoms: _393  and  _394
REMARK  142  A    between atoms: _393  and  _396
REMARK  143  A    between atoms: _396  and  _397
REMARK  144  A    between atoms: _397  and  _398
REMARK  145  A    between atoms: _398  and  _399
REMARK                            x       y       z     vdW  Elec       q    Type
REMARK                         _______ _______ _______ _____ _____    ______ ____
ROOT
ATOM      1  C   UNK A   4     -10.352  -1.296  10.237  0.00  0.00    +0.000 C 
ATOM      2  C   UNK A   4     -10.410  -2.579  11.046  0.00  0.00    +0.000 C 
ATOM      3  O   UNK A   4     -11.036  -2.635  12.107  0.00  0.00    +0.000 OA
ATOM      4  N   VAL A   5      -9.716  -3.597  10.558  0.00  0.00    +0.000 N 
ATOM      5  CA  VAL A   5      -9.665  -4.884  11.229  0.00  0.00    +0.000 C 
ATOM      6  C   VAL A   5      -8.219  -5.333  11.430  0.00  0.00    +0.000 C 
ATOM      7  N   UNK A   6      -8.053  -6.272  12.355  0.00  0.00    +0.000 N 
ATOM      8  H   UNK A   6      -8.835  -6.453  13.016  0.00  0.00    +0.000 HD
ATOM      9  C   UNK A   6      -6.834  -7.066  12.497  0.00  0.00    +0.000 C 
ATOM     10  C   UNK A   6      -6.151  -6.802  13.841  0.00  0.00    +0.000 C 
ATOM     11  C   UNK A   6      -5.874  -5.353  14.100  0.00  0.00    +0.000 A 
ATOM     12  C   UNK A   6      -6.681  -4.350  14.527  0.00  0.00    +0.000 A 
ATOM     13  N   UNK A   6      -5.918  -3.205  14.569  0.00  0.00    +0.000 N 
ATOM     14 ZN   UNK A   6      -6.742  -1.427  15.243  0.00  0.00    +0.000 Zn
ATOM     15  N   UNK A   4      -7.486  -0.619  13.560  0.00  0.00    +0.000 N 
ATOM     16  C   UNK A   4      -7.968   0.602  13.404  0.00  0.00    +0.000 A 
ATOM     17  N   UNK A   4      -8.518   0.682  12.204  0.00  0.00    +0.000 NA
ATOM     18  C   UNK A   4      -8.355  -0.519  11.551  0.00  0.00    +0.000 A 
ATOM     19  C   UNK A   4      -7.715  -1.339  12.414  0.00  0.00    +0.000 A 
ATOM     20  C   UNK A   6      -4.683  -3.501  14.203  0.00  0.00    +0.000 A 
ATOM     21  N   UNK A   6      -4.632  -4.789  13.891  0.00  0.00    +0.000 NA
ATOM     22  O   VAL A   5      -7.297  -4.847  10.758  0.00  0.00    +0.000 OA
ATOM     23  H   VAL A   5      -9.192  -3.471   9.668  0.00  0.00    +0.000 HD
ATOM     24  C   UNK A   4      -8.914  -0.771  10.189  0.00  0.00    +0.000 C 
ENDROOT
BRANCH  14  25
ATOM     25  N   UNK A   6      -8.195  -2.155  16.486  0.00  0.00    +0.000 N 
ATOM     26  C   UNK A   6      -7.858  -3.075  17.372  0.00  0.00    +0.000 A 
ATOM     27  N   UNK A   6      -8.958  -3.498  17.975  0.00  0.00    +0.000 NA
ATOM     28  C   UNK A   6     -10.038  -2.836  17.448  0.00  0.00    +0.000 A 
ATOM     29  C   UNK A   6      -9.564  -1.979  16.514  0.00  0.00    +0.000 A 
BRANCH  29  30
ATOM     30  C   UNK A   6     -10.275  -1.005  15.633  0.00  0.00    +0.000 C 
BRANCH  30  31
ATOM     31  C   UNK A   6     -11.771  -1.289  15.505  0.00  0.00    +0.000 C 
BRANCH  31  32
ATOM     32  C   UNK A   6     -12.468  -0.122  14.835  0.00  0.00    +0.000 C 
ATOM     33  N   UNK A   4     -13.484   0.419  15.511  0.00  0.00    +0.000 N 
ATOM     34  H   UNK A   4     -13.822  -0.058  16.371  0.00  0.00    +0.000 HD
ATOM     35  O   UNK A   6     -12.103   0.265  13.716  0.00  0.00    +0.000 OA
BRANCH  33  36
ATOM     36  C   UNK A   4     -14.141   1.657  15.090  0.00  0.00    +0.000 C 
BRANCH  36  37
ATOM     37  C   UNK A   4     -13.505   2.817  15.850  0.00  0.00    +0.000 C 
ATOM     38  O   UNK A   4     -13.626   2.916  17.079  0.00  0.00    +0.000 OA
ATOM     39  N   VAL A   5     -12.797   3.673  15.123  0.00  0.00    +0.000 N 
ATOM     40  H   VAL A   5     -12.844   3.617  14.086  0.00  0.00    +0.000 HD
BRANCH  39  41
ATOM     41  CA  VAL A   5     -11.952   4.693  15.746  0.00  0.00    +0.000 C 
BRANCH  41  42
ATOM     42  C   VAL A   5     -12.642   6.049  15.800  0.00  0.00    +0.000 C 
ATOM     43  N   UNK A   6     -12.715   6.642  16.998  0.00  0.00    +0.000 N 
ATOM     44  H   UNK A   6     -12.283   6.169  17.818  0.00  0.00    +0.000 HD
ATOM     45  O   VAL A   5     -13.080   6.556  14.761  0.00  0.00    +0.000 OA
BRANCH  43  46
ATOM     46  C   UNK A   6     -13.383   7.938  17.199  0.00  0.00    +0.000 C 
BRANCH  46  47
ATOM     47  C   UNK A   6     -12.474   8.929  17.913  0.00  0.00    +0.000 C 
ATOM     48  O   UNK A   6     -11.729   8.535  18.807  0.00  0.00    +0.000 OA
ENDBRANCH  46  47
BRANCH  46  49
ATOM     49  C   UNK A   6     -14.657   7.791  18.039  0.00  0.00    +0.000 C 
BRANCH  49  50
ATOM     50  C   UNK A   6     -15.555   6.671  17.615  0.00  0.00    +0.000 A 
ATOM     51  N   UNK A   6     -15.242   5.346  17.825  0.00  0.00    +0.000 NA
ATOM     52  C   UNK A   6     -16.223   4.585  17.368  0.00  0.00    +0.000 A 
ATOM     53  N   UNK A   6     -17.161   5.369  16.866  0.00  0.00    +0.000 NA
ATOM     54  C   UNK A   6     -16.765   6.678  17.005  0.00  0.00    +0.000 A 
ENDBRANCH  49  50
ENDBRANCH  46  49
ENDBRANCH  43  46
ENDBRANCH  41  42
BRANCH  41  55
ATOM     55  CB  VAL A   5     -10.634   4.837  14.969  0.00  0.00    +0.000 C 
ATOM     56  CG2 VAL A   5      -9.686   5.803  15.672  0.00  0.00    +0.000 C 
ATOM     57  CG1 VAL A   5      -9.976   3.469  14.783  0.00  0.00    +0.000 C 
ENDBRANCH  41  55
ENDBRANCH  39  41
ENDBRANCH  36  37
BRANCH  36  58
ATOM     58  C   UNK A   4     -15.649   1.565  15.333  0.00  0.00    +0.000 C 
BRANCH  58  59
ATOM     59  C   UNK A   4     -16.296   0.512  14.436  0.00  0.00    +0.000 C 
ATOM     60  C   UNK A   4     -17.143  -0.445  15.260  0.00  0.00    +0.000 C 
ATOM     61  C   UNK A   4     -17.144   1.183  13.347  0.00  0.00    +0.000 C 
ENDBRANCH  58  59
ENDBRANCH  36  58
ENDBRANCH  33  36
ENDBRANCH  31  32
BRANCH  31  62
ATOM     62  N   UNK A   6     -11.977  -2.518  14.754  0.00  0.00    +0.000 N 
ATOM     63  C   LEU A   2     -12.626  -3.569  15.262  0.00  0.00    +0.000 C 
ATOM     64  O   LEU A   2     -13.020  -3.624  16.433  0.00  0.00    +0.000 OA
ATOM     65  H   UNK A   6     -11.605  -2.580  13.785  0.00  0.00    +0.000 HD
BRANCH  63  66
ATOM     66  CA  LEU A   2     -12.860  -4.744  14.314  0.00  0.00    +0.000 C 
BRANCH  66  67
ATOM     67  N   LEU A   2     -12.475  -6.000  14.949  0.00  0.00    +0.000 N 
ATOM     68  H   LEU A   2     -13.184  -6.490  15.531  0.00  0.00    +0.000 HD
ATOM     69  C   GLU A   1     -11.274  -6.557  14.829  0.00  0.00    +0.000 C 
ATOM     70  O   GLU A   1     -10.363  -6.107  14.123  0.00  0.00    +0.000 OA
BRANCH  69  71
ATOM     71  CA  GLU A   1     -11.071  -7.832  15.629  0.00  0.00    +0.000 C 
BRANCH  71  72
ATOM     72  N   GLU A   1     -10.567  -8.864  14.743  0.00  0.00    +0.000 NA
ATOM     73  H   GLU A   1      -9.947  -8.596  13.952  0.00  0.00    +0.000 HD
ENDBRANCH  71  72
BRANCH  71  74
ATOM     74  CB  GLU A   1     -10.095  -7.599  16.792  0.00  0.00    +0.000 C 
BRANCH  74  75
ATOM     75  CG  GLU A   1     -10.583  -6.604  17.847  0.00  0.00    +0.000 C 
BRANCH  75  76
ATOM     76  CD  GLU A   1      -9.659  -6.543  19.056  0.00  0.00    +0.000 C 
ATOM     77  OE2 GLU A   1      -9.614  -5.476  19.718  0.00  0.00    +0.000 OA
ATOM     78  OE1 GLU A   1      -9.009  -7.569  19.352  0.00  0.00    +0.000 OA
ENDBRANCH  75  76
ENDBRANCH  74  75
ENDBRANCH  71  74
ENDBRANCH  69  71
ENDBRANCH  66  67
BRANCH  66  79
ATOM     79  CB  LEU A   2     -14.338  -4.808  13.894  0.00  0.00    +0.000 C 
BRANCH  79  80
ATOM     80  CG  LEU A   2     -15.110  -3.531  13.543  0.00  0.00    +0.000 C 
ATOM     81  CD2 LEU A   2     -16.562  -3.919  13.313  0.00  0.00    +0.000 C 
ATOM     82  CD1 LEU A   2     -14.530  -2.868  12.299  0.00  0.00    +0.000 C 
ENDBRANCH  79  80
ENDBRANCH  66  79
ENDBRANCH  63  66
ENDBRANCH  31  62
ENDBRANCH  30  31
ENDBRANCH  29  30
ENDBRANCH  14  25
BRANCH   1  84
ATOM     83  C   UNK A   3     -11.778   0.682  10.190  0.00  0.00    +0.000 C 
ATOM     84  N   UNK A   4     -11.244  -0.332  10.858  0.00  0.00    +0.000 N 
ATOM     85  H   UNK A   4     -11.473  -0.441  11.867  0.00  0.00    +0.000 HD
ATOM     86  O   UNK A   3     -11.534   0.923   9.009  0.00  0.00    +0.000 OA
BRANCH  83  87
ATOM     87  C   UNK A   3     -12.702   1.564  11.008  0.00  0.00    +0.000 C 
BRANCH  87  90
ATOM     88  C   LEU A   2     -12.662   3.963  11.088  0.00  0.00    +0.000 C 
ATOM     89  O   LEU A   2     -12.705   3.979  12.314  0.00  0.00    +0.000 OA
ATOM     90  N   UNK A   3     -12.849   2.858  10.367  0.00  0.00    +0.000 N 
ATOM     91  H   UNK A   3     -13.097   2.922   9.359  0.00  0.00    +0.000 HD
BRANCH  88  92
ATOM     92  CA  LEU A   2     -12.408   5.244  10.321  0.00  0.00    +0.000 C 
BRANCH  92  94
ATOM     93  C   GLU A   1     -12.813   7.617  10.612  0.00  0.00    +0.000 C 
ATOM     94  N   LEU A   2     -12.698   6.408  11.157  0.00  0.00    +0.000 N 
ATOM     95  H   LEU A   2     -12.815   6.291  12.184  0.00  0.00    +0.000 HD
ATOM     96  O   GLU A   1     -12.722   7.795   9.397  0.00  0.00    +0.000 OA
BRANCH  93  97
ATOM     97  CA  GLU A   1     -13.104   8.792  11.553  0.00  0.00    +0.000 C 
BRANCH  97  98
ATOM     98  CB  GLU A   1     -11.776   9.428  12.054  0.00  0.00    +0.000 C 
ATOM     99  CG2 GLU A   1     -11.100   8.552  13.127  0.00  0.00    +0.000 C 
BRANCH  98 100
ATOM    100  CG1 GLU A   1     -10.836   9.688  10.878  0.00  0.00    +0.000 C 
ATOM    101  CD1 GLU A   1      -9.649  10.566  11.240  0.00  0.00    +0.000 C 
ENDBRANCH  98 100
ENDBRANCH  97  98
BRANCH  97 102
ATOM    102  N   GLU A   1     -13.965   8.387  12.666  0.00  0.00    +0.000 NA
ATOM    103  H   GLU A   1     -13.596   7.741  13.393  0.00  0.00    +0.000 HD
ENDBRANCH  97 102
ENDBRANCH  93  97
ENDBRANCH  92  94
BRANCH  92 104
ATOM    104  CB  LEU A   2     -10.949   5.267   9.828  0.00  0.00    +0.000 C 
BRANCH 104 105
ATOM    105  CG  LEU A   2      -9.902   5.423  10.950  0.00  0.00    +0.000 C 
BRANCH 105 106
ATOM    106  CD  LEU A   2      -9.103   4.156  11.236  0.00  0.00    +0.000 C 
ATOM    107  NE2 LEU A   2      -7.837   4.336  11.607  0.00  0.00    +0.000 N 
ATOM    108 HE21 LEU A   2      -7.238   3.515  11.827  0.00  0.00    +0.000 HD
ATOM    109 HE22 LEU A   2      -7.447   5.298  11.677  0.00  0.00    +0.000 HD
ATOM    110  OE1 LEU A   2      -9.611   3.044  11.138  0.00  0.00    +0.000 OA
ENDBRANCH 105 106
ENDBRANCH 104 105
ENDBRANCH  92 104
ENDBRANCH  88  92
ENDBRANCH  87  90
BRANCH  87 111
ATOM    111  C   UNK A   3     -14.060   0.867  11.251  0.00  0.00    +0.000 C 
BRANCH 111 112
ATOM    112  C   UNK A   3     -14.781   0.401   9.998  0.00  0.00    +0.000 A 
ATOM    113  C   UNK A   3     -15.899   1.089   9.541  0.00  0.00    +0.000 A 
ATOM    114  C   UNK A   3     -16.602   0.650   8.416  0.00  0.00    +0.000 A 
ATOM    115  C   UNK A   3     -16.192  -0.496   7.753  0.00  0.00    +0.000 A 
ATOM    116  C   UNK A   3     -15.081  -1.203   8.209  0.00  0.00    +0.000 A 
ATOM    117  C   UNK A   3     -14.399  -0.766   9.334  0.00  0.00    +0.000 A 
ENDBRANCH 111 112
ENDBRANCH  87 111
ENDBRANCH  83  87
ENDBRANCH   1  84
BRANCH   9 118
ATOM    118  C   UNK A   6      -7.247  -8.520  12.386  0.00  0.00    +0.000 C 
ATOM    119  O   UNK A   6      -8.285  -8.900  12.927  0.00  0.00    +0.000 OA
ENDBRANCH   9 118
BRANCH   5 120
ATOM    120  CB  VAL A   5     -10.391  -5.967  10.420  0.00  0.00    +0.000 C 
BRANCH 120 121
ATOM    121  CG  VAL A   5     -11.828  -5.672  10.109  0.00  0.00    +0.000 A 
ATOM    122  CD2 VAL A   5     -12.843  -6.313  10.813  0.00  0.00    +0.000 A 
ATOM    123  CE2 VAL A   5     -14.179  -6.090  10.491  0.00  0.00    +0.000 A 
ATOM    124  CZ  VAL A   5     -14.511  -5.242   9.448  0.00  0.00    +0.000 A 
ATOM    125  CE1 VAL A   5     -13.502  -4.611   8.728  0.00  0.00    +0.000 A 
ATOM    126  CD1 VAL A   5     -12.173  -4.844   9.054  0.00  0.00    +0.000 A 
ENDBRANCH 120 121
ENDBRANCH   5 120
TORSDOF 42
REMARK  Name = ../refined-set-2016/4ruz/4ruz_pocket.pdb
REMARK  145 active torsions:
REMARK  status: ('A' for Active; 'I' for Inactive)
REMARK    1  A    between atoms: _1  and  _3
REMARK    2  A    between atoms: _3  and  _4
REMARK    3  A    between atoms: _3  and  _6
REMARK    4  A    between atoms: _6  and  _7
REMARK    5  A    between atoms: _17  and  _19
REMARK    6  A    between atoms: _19  and  _20
REMARK    7  A    between atoms: _19  and  _22
REMARK    8  A    between atoms: _22  and  _23
REMARK    9  A    between atoms: _28  and  _29
REMARK   10  A    between atoms: _31  and  _33
REMARK   11  A    between atoms: _33  and  _34
REMARK   12  A    between atoms: _33  and  _36
REMARK   13  A    between atoms: _36  and  _37
REMARK   14  A    between atoms: _40  and  _41
REMARK   15  A    between atoms: _46  and  _48
REMARK   16  A    between atoms: _48  and  _49
REMARK   17  A    between atoms: _48  and  _51
REMARK   18  A    between atoms: _51  and  _52
REMARK   19  A    between atoms: _57  and  _59
REMARK   20  A    between atoms: _59  and  _60
REMARK   21  A    between atoms: _63  and  _65
REMARK   22  A    between atoms: _65  and  _66
REMARK   23  A    between atoms: _65  and  _68
REMARK   24  A    between atoms: _68  and  _69
REMARK   25  A    between atoms: _74  and  _76
REMARK   26  A    between atoms: _76  and  _77
REMARK   27  A    between atoms: _76  and  _79
REMARK   28  A    between atoms: _79  and  _80
REMARK   29  A    between atoms: _83  and  _85
REMARK   30  A    between atoms: _85  and  _86
REMARK   31  A    between atoms: _85  and  _88
REMARK   32  A    between atoms: _88  and  _89
REMARK   33  A    between atoms: _89  and  _90
REMARK   34  A    between atoms: _95  and  _97
REMARK   35  A    between atoms: _97  and  _98
REMARK   36  A    between atoms: _97  and  _100
REMARK   37  A    between atoms: _100  and  _101
REMARK   38  A    between atoms: _107  and  _109
REMARK   39  A    between atoms: _120  and  _123
REMARK   40  A    between atoms: _123  and  _124
REMARK   41  A    between atoms: _132  and  _133
REMARK   42  A    between atoms: _141  and  _143
REMARK   43  A    between atoms: _143  and  _144
REMARK   44  A    between atoms: _143  and  _146
REMARK   45  A    between atoms: _146  and  _147
REMARK   46  A    between atoms: _147  and  _148
REMARK   47  A    between atoms: _151  and  _153
REMARK   48  A    between atoms: _153  and  _154
REMARK   49  A    between atoms: _153  and  _156
REMARK   50  A    between atoms: _156  and  _157
REMARK   51  A    between atoms: _162  and  _164
REMARK   52  A    between atoms: _164  and  _165
REMARK   53  A    between atoms: _164  and  _167
REMARK   54  A    between atoms: _167  and  _168
REMARK   55  A    between atoms: _168  and  _169
REMARK   56  A    between atoms: _172  and  _174
REMARK   57  A    between atoms: _174  and  _175
REMARK   58  A    between atoms: _174  and  _177
REMARK   59  A    between atoms: _177  and  _178
REMARK   60  A    between atoms: _181  and  _183
REMARK   61  A    between atoms: _183  and  _184
REMARK   62  A    between atoms: _183  and  _186
REMARK   63  A    between atoms: _186  and  _187
REMARK   64  A    between atoms: _188  and  ZN_408
REMARK   65  A    between atoms: _192  and  _194
REMARK   66  A    between atoms: _194  and  _195
REMARK   67  A    between atoms: _194  and  _197
REMARK   68  A    between atoms: _197  and  _198
REMARK   69  A    between atoms: _201  and  _203
REMARK   70  A    between atoms: _203  and  _204
REMARK   71  A    between atoms: _203  and  _206
REMARK   72  A    between atoms: _209  and  _211
REMARK   73  A    between atoms: _211  and  _212
REMARK   74  A    between atoms: _211  and  _214
REMARK   75  A    between atoms: _214  and  _215
REMARK   76  A    between atoms: _220  and  _222
REMARK   77  A    between atoms: _222  and  _223
REMARK   78  A    between atoms: _222  and  _225
REMARK   79  A    between atoms: _225  and  _226
REMARK   80  A    between atoms: _232  and  _234
REMARK   81  A    between atoms: _234  and  _235
REMARK   82  A    between atoms: _234  and  _237
REMARK   83  A    between atoms: _240  and  _242
REMARK   84  A    between atoms: _242  and  _243
REMARK   85  A    between atoms: _242  and  _245
REMARK   86  A    between atoms: _245  and  _246
REMARK   87  A    between atoms: _249  and  _251
REMARK   88  A    between atoms: _251  and  _252
REMARK   89  A    between atoms: _255  and  _257
REMARK   90  A    between atoms: _257  and  _258
REMARK   91  A    between atoms: _257  and  _260
REMARK   92  A    between atoms: _263  and  _265
REMARK   93  A    between atoms: _265  and  _266
REMARK   94  A    between atoms: _265  and  _268
REMARK   95  A    between atoms: _268  and  _269
REMARK   96  A    between atoms: _272  and  _274
REMARK   97  A    between atoms: _274  and  _275
REMARK   98  A    between atoms: _277  and  _279
REMARK   99  A    between atoms: _279  and  _280
REMARK  100  A    between atoms: _282  and  _284
REMARK  101  A    between atoms: _284  and  _285
REMARK  102  A    between atoms: _284  and  _287
REMARK  103  A    between atoms: _287  and  _288
REMARK  104  A    between atoms: _290  and  _292
REMARK  105  A    between atoms: _292  and  _293
REMARK  106  A    between atoms: _292  and  _295
REMARK  107  A    between atoms: _295  and  _296
REMARK  108  A    between atoms: _299  and  _301
REMARK  109  A    between atoms: _301  and  _302
REMARK  110  A    between atoms: _301  and  _304
REMARK  111  A    between atoms: _304  and  _305
REMARK  112  A    between atoms: _308  and  _310
REMARK  113  A    between atoms: _310  and  _311
REMARK  114  A    between atoms: _310  and  _313
REMARK  115  A    between atoms: _313  and  _314
REMARK  116  A    between atoms: _318  and  _319
REMARK  117  A    between atoms: _325  and  _326
REMARK  118  A    between atoms: _331  and  _333
REMARK  119  A    between atoms: _333  and  _334
REMARK  120  A    between atoms: _333  and  _336
REMARK  121  A    between atoms: _336  and  _337
REMARK  122  A    between atoms: _340  and  _342
REMARK  123  A    between atoms: _342  and  _343
REMARK  124  A    between atoms: _342  and  _345
REMARK  125  A    between atoms: _345  and  _346
REMARK  126  A    between atoms: _349  and  _351
REMARK  127  A    between atoms: _351  and  _352
REMARK  128  A    between atoms: _351  and  _354
REMARK  129  A    between atoms: _356  and  _358
REMARK  130  A    between atoms: _358  and  _359
REMARK  131  A    between atoms: _358  and  _361
REMARK  132  A    between atoms: _364  and  _366
REMARK  133  A    between atoms: _366  and  _367
REMARK  134  A    between atoms: _366  and  _369
REMARK  135  A    between atoms: _369  and  _370
REMARK  136  A    between atoms: _380  and  _382
REMARK  137  A    between atoms: _382  and  _383
REMARK  138  A    between atoms: _382  and  _385
REMARK  139  A    between atoms: _385  and  _386
REMARK  140  A    between atoms: _391  and  _393
REMARK  141  A    between atoms: _393  and  _394
REMARK  142  A    between atoms: _393  and  _396
REMARK  143  A    between atoms: _396  and  _397
REMARK  144  A    between atoms: _397  and  _398
REMARK  145  A    between atoms: _398  and  _399
REMARK                            x       y       z     vdW  Elec       q    Type
REMARK                         _______ _______ _______ _____ _____    ______ ____
ROOT
ATOM      1  C   GLU A   1      -5.861  -8.310  20.958  0.00  0.00    +0.238 C 
ATOM      2  O   GLU A   1      -5.063  -8.857  21.718  0.00  0.00    -0.274 OA
ATOM      3  N   HIS A   2      -7.049  -7.889  21.366  0.00  0.00    -0.298 N 
ATOM      4  H   HIS A   2      -7.651  -7.321  20.736  0.00  0.00    +0.150 HD
ENDROOT
BRANCH   1   5
ATOM      5  CA  GLU A   1      -5.541  -8.130  19.480  0.00  0.00    +0.145 C 
BRANCH   5   6
ATOM      6  N   GLU A   1      -6.559  -8.806  18.672  0.00  0.00    -0.238 NA
ATOM      7  H   GLU A   1      -7.419  -8.280  18.416  0.00  0.00    +0.142 HD
ENDBRANCH   5   6
BRANCH   5   8
ATOM      8  CB  GLU A   1      -5.471  -6.657  19.082  0.00  0.00    +0.038 C 
BRANCH   8   9
ATOM      9  CG  GLU A   1      -5.114  -6.518  17.604  0.00  0.00    +0.116 C 
BRANCH   9  10
ATOM     10  CD  GLU A   1      -4.402  -5.228  17.280  0.00  0.00    +0.365 C 
ATOM     11  OE2 GLU A   1      -5.006  -4.156  17.473  0.00  0.00    -0.246 OA
ATOM     12  OE1 GLU A   1      -3.234  -5.286  16.835  0.00  0.00    -0.246 OA
ENDBRANCH   9  10
ENDBRANCH   8   9
ENDBRANCH   5   8
ENDBRANCH   1   5
BRANCH   3  13
ATOM     13  CA  HIS A   2      -7.501  -8.231  22.704  0.00  0.00    +0.143 C 
BRANCH  13  14
ATOM     14  C   HIS A   2      -7.795  -9.707  22.757  0.00  0.00    +0.227 C 
ATOM     15  O   HIS A   2      -8.131 -10.301  21.737  0.00  0.00    -0.286 OA
ENDBRANCH  13  14
BRANCH  13  16
ATOM     16  CB  HIS A   2      -8.734  -7.427  23.093  0.00  0.00    +0.075 C 
BRANCH  16  17
ATOM     17  CG  HIS A   2      -8.438  -5.977  23.262  0.00  0.00    +0.082 A 
ATOM     18  CD2 HIS A   2      -7.979  -5.279  24.328  0.00  0.00    +0.115 A 
ATOM     19  NE2 HIS A   2      -7.819  -3.978  23.919  0.00  0.00    -0.221 NA
ATOM     20  CE1 HIS A   2      -8.154  -3.885  22.643  0.00  0.00    +0.199 A 
ATOM     21  ND1 HIS A   2      -8.529  -5.081  22.219  0.00  0.00    -0.227 NA
ENDBRANCH  16  17
ENDBRANCH  13  16
ENDBRANCH   3  13
TORSDOF 9
REMARK  Name = ../refined-set-2016/4ruz/4ruz_pocket.pdb
REMARK  145 active torsions:
REMARK  status: ('A' for Active; 'I' for Inactive)
REMARK    1  A    between atoms: _1  and  _3
REMARK    2  A    between atoms: _3  and  _4
REMARK    3  A    between atoms: _3  and  _6
REMARK    4  A    between atoms: _6  and  _7
REMARK    5  A    between atoms: _17  and  _19
REMARK    6  A    between atoms: _19  and  _20
REMARK    7  A    between atoms: _19  and  _22
REMARK    8  A    between atoms: _22  and  _23
REMARK    9  A    between atoms: _28  and  _29
REMARK   10  A    between atoms: _31  and  _33
REMARK   11  A    between atoms: _33  and  _34
REMARK   12  A    between atoms: _33  and  _36
REMARK   13  A    between atoms: _36  and  _37
REMARK   14  A    between atoms: _40  and  _41
REMARK   15  A    between atoms: _46  and  _48
REMARK   16  A    between atoms: _48  and  _49
REMARK   17  A    between atoms: _48  and  _51
REMARK   18  A    between atoms: _51  and  _52
REMARK   19  A    between atoms: _57  and  _59
REMARK   20  A    between atoms: _59  and  _60
REMARK   21  A    between atoms: _63  and  _65
REMARK   22  A    between atoms: _65  and  _66
REMARK   23  A    between atoms: _65  and  _68
REMARK   24  A    between atoms: _68  and  _69
REMARK   25  A    between atoms: _74  and  _76
REMARK   26  A    between atoms: _76  and  _77
REMARK   27  A    between atoms: _76  and  _79
REMARK   28  A    between atoms: _79  and  _80
REMARK   29  A    between atoms: _83  and  _85
REMARK   30  A    between atoms: _85  and  _86
REMARK   31  A    between atoms: _85  and  _88
REMARK   32  A    between atoms: _88  and  _89
REMARK   33  A    between atoms: _89  and  _90
REMARK   34  A    between atoms: _95  and  _97
REMARK   35  A    between atoms: _97  and  _98
REMARK   36  A    between atoms: _97  and  _100
REMARK   37  A    between atoms: _100  and  _101
REMARK   38  A    between atoms: _107  and  _109
REMARK   39  A    between atoms: _120  and  _123
REMARK   40  A    between atoms: _123  and  _124
REMARK   41  A    between atoms: _132  and  _133
REMARK   42  A    between atoms: _141  and  _143
REMARK   43  A    between atoms: _143  and  _144
REMARK   44  A    between atoms: _143  and  _146
REMARK   45  A    between atoms: _146  and  _147
REMARK   46  A    between atoms: _147  and  _148
REMARK   47  A    between atoms: _151  and  _153
REMARK   48  A    between atoms: _153  and  _154
REMARK   49  A    between atoms: _153  and  _156
REMARK   50  A    between atoms: _156  and  _157
REMARK   51  A    between atoms: _162  and  _164
REMARK   52  A    between atoms: _164  and  _165
REMARK   53  A    between atoms: _164  and  _167
REMARK   54  A    between atoms: _167  and  _168
REMARK   55  A    between atoms: _168  and  _169
REMARK   56  A    between atoms: _172  and  _174
REMARK   57  A    between atoms: _174  and  _175
REMARK   58  A    between atoms: _174  and  _177
REMARK   59  A    between atoms: _177  and  _178
REMARK   60  A    between atoms: _181  and  _183
REMARK   61  A    between atoms: _183  and  _184
REMARK   62  A    between atoms: _183  and  _186
REMARK   63  A    between atoms: _186  and  _187
REMARK   64  A    between atoms: _188  and  ZN_408
REMARK   65  A    between atoms: _192  and  _194
REMARK   66  A    between atoms: _194  and  _195
REMARK   67  A    between atoms: _194  and  _197
REMARK   68  A    between atoms: _197  and  _198
REMARK   69  A    between atoms: _201  and  _203
REMARK   70  A    between atoms: _203  and  _204
REMARK   71  A    between atoms: _203  and  _206
REMARK   72  A    between atoms: _209  and  _211
REMARK   73  A    between atoms: _211  and  _212
REMARK   74  A    between atoms: _211  and  _214
REMARK   75  A    between atoms: _214  and  _215
REMARK   76  A    between atoms: _220  and  _222
REMARK   77  A    between atoms: _222  and  _223
REMARK   78  A    between atoms: _222  and  _225
REMARK   79  A    between atoms: _225  and  _226
REMARK   80  A    between atoms: _232  and  _234
REMARK   81  A    between atoms: _234  and  _235
REMARK   82  A    between atoms: _234  and  _237
REMARK   83  A    between atoms: _240  and  _242
REMARK   84  A    between atoms: _242  and  _243
REMARK   85  A    between atoms: _242  and  _245
REMARK   86  A    between atoms: _245  and  _246
REMARK   87  A    between atoms: _249  and  _251
REMARK   88  A    between atoms: _251  and  _252
REMARK   89  A    between atoms: _255  and  _257
REMARK   90  A    between atoms: _257  and  _258
REMARK   91  A    between atoms: _257  and  _260
REMARK   92  A    between atoms: _263  and  _265
REMARK   93  A    between atoms: _265  and  _266
REMARK   94  A    between atoms: _265  and  _268
REMARK   95  A    between atoms: _268  and  _269
REMARK   96  A    between atoms: _272  and  _274
REMARK   97  A    between atoms: _274  and  _275
REMARK   98  A    between atoms: _277  and  _279
REMARK   99  A    between atoms: _279  and  _280
REMARK  100  A    between atoms: _282  and  _284
REMARK  101  A    between atoms: _284  and  _285
REMARK  102  A    between atoms: _284  and  _287
REMARK  103  A    between atoms: _287  and  _288
REMARK  104  A    between atoms: _290  and  _292
REMARK  105  A    between atoms: _292  and  _293
REMARK  106  A    between atoms: _292  and  _295
REMARK  107  A    between atoms: _295  and  _296
REMARK  108  A    between atoms: _299  and  _301
REMARK  109  A    between atoms: _301  and  _302
REMARK  110  A    between atoms: _301  and  _304
REMARK  111  A    between atoms: _304  and  _305
REMARK  112  A    between atoms: _308  and  _310
REMARK  113  A    between atoms: _310  and  _311
REMARK  114  A    between atoms: _310  and  _313
REMARK  115  A    between atoms: _313  and  _314
REMARK  116  A    between atoms: _318  and  _319
REMARK  117  A    between atoms: _325  and  _326
REMARK  118  A    between atoms: _331  and  _333
REMARK  119  A    between atoms: _333  and  _334
REMARK  120  A    between atoms: _333  and  _336
REMARK  121  A    between atoms: _336  and  _337
REMARK  122  A    between atoms: _340  and  _342
REMARK  123  A    between atoms: _342  and  _343
REMARK  124  A    between atoms: _342  and  _345
REMARK  125  A    between atoms: _345  and  _346
REMARK  126  A    between atoms: _349  and  _351
REMARK  127  A    between atoms: _351  and  _352
REMARK  128  A    between atoms: _351  and  _354
REMARK  129  A    between atoms: _356  and  _358
REMARK  130  A    between atoms: _358  and  _359
REMARK  131  A    between atoms: _358  and  _361
REMARK  132  A    between atoms: _364  and  _366
REMARK  133  A    between atoms: _366  and  _367
REMARK  134  A    between atoms: _366  and  _369
REMARK  135  A    between atoms: _369  and  _370
REMARK  136  A    between atoms: _380  and  _382
REMARK  137  A    between atoms: _382  and  _383
REMARK  138  A    between atoms: _382  and  _385
REMARK  139  A    between atoms: _385  and  _386
REMARK  140  A    between atoms: _391  and  _393
REMARK  141  A    between atoms: _393  and  _394
REMARK  142  A    between atoms: _393  and  _396
REMARK  143  A    between atoms: _396  and  _397
REMARK  144  A    between atoms: _397  and  _398
REMARK  145  A    between atoms: _398  and  _399
REMARK                            x       y       z     vdW  Elec       q    Type
REMARK                         _______ _______ _______ _____ _____    ______ ____
ROOT
ATOM      1  CB  PHE A   1      -7.822  12.589  13.894  0.00  0.00    +0.051 C 
ENDROOT
BRANCH   1   2
ATOM      2  CG  PHE A   1      -7.131  11.284  14.150  0.00  0.00    -0.020 A 
ATOM      3  CD2 PHE A   1      -7.782  10.234  14.808  0.00  0.00    -0.004 A 
ATOM      4  CE2 PHE A   1      -7.133   9.026  15.028  0.00  0.00    -0.000 A 
ATOM      5  CZ  PHE A   1      -5.840   8.852  14.592  0.00  0.00    -0.000 A 
ATOM      6  CE1 PHE A   1      -5.185   9.887  13.933  0.00  0.00    -0.000 A 
ATOM      7  CD1 PHE A   1      -5.835  11.091  13.715  0.00  0.00    -0.004 A 
ENDBRANCH   1   2
BRANCH   1   8
ATOM      8  CA  PHE A   1      -7.699  13.595  15.037  0.00  0.00    +0.137 C 
BRANCH   8   9
ATOM      9  N   PHE A   1      -8.346  14.844  14.656  0.00  0.00    -0.239 NA
ATOM     10  H   PHE A   1      -8.739  14.933  13.697  0.00  0.00    +0.142 HD
ENDBRANCH   8   9
BRANCH   8  11
ATOM     11  C   PHE A   1      -6.234  13.789  15.428  0.00  0.00    +0.224 C 
ATOM     12  O   PHE A   1      -5.766  13.214  16.421  0.00  0.00    -0.287 OA
ENDBRANCH   8  11
ENDBRANCH   1   8
TORSDOF 4
REMARK  Name = ../refined-set-2016/4ruz/4ruz_pocket.pdb
REMARK  145 active torsions:
REMARK  status: ('A' for Active; 'I' for Inactive)
REMARK    1  A    between atoms: _1  and  _3
REMARK    2  A    between atoms: _3  and  _4
REMARK    3  A    between atoms: _3  and  _6
REMARK    4  A    between atoms: _6  and  _7
REMARK    5  A    between atoms: _17  and  _19
REMARK    6  A    between atoms: _19  and  _20
REMARK    7  A    between atoms: _19  and  _22
REMARK    8  A    between atoms: _22  and  _23
REMARK    9  A    between atoms: _28  and  _29
REMARK   10  A    between atoms: _31  and  _33
REMARK   11  A    between atoms: _33  and  _34
REMARK   12  A    between atoms: _33  and  _36
REMARK   13  A    between atoms: _36  and  _37
REMARK   14  A    between atoms: _40  and  _41
REMARK   15  A    between atoms: _46  and  _48
REMARK   16  A    between atoms: _48  and  _49
REMARK   17  A    between atoms: _48  and  _51
REMARK   18  A    between atoms: _51  and  _52
REMARK   19  A    between atoms: _57  and  _59
REMARK   20  A    between atoms: _59  and  _60
REMARK   21  A    between atoms: _63  and  _65
REMARK   22  A    between atoms: _65  and  _66
REMARK   23  A    between atoms: _65  and  _68
REMARK   24  A    between atoms: _68  and  _69
REMARK   25  A    between atoms: _74  and  _76
REMARK   26  A    between atoms: _76  and  _77
REMARK   27  A    between atoms: _76  and  _79
REMARK   28  A    between atoms: _79  and  _80
REMARK   29  A    between atoms: _83  and  _85
REMARK   30  A    between atoms: _85  and  _86
REMARK   31  A    between atoms: _85  and  _88
REMARK   32  A    between atoms: _88  and  _89
REMARK   33  A    between atoms: _89  and  _90
REMARK   34  A    between atoms: _95  and  _97
REMARK   35  A    between atoms: _97  and  _98
REMARK   36  A    between atoms: _97  and  _100
REMARK   37  A    between atoms: _100  and  _101
REMARK   38  A    between atoms: _107  and  _109
REMARK   39  A    between atoms: _120  and  _123
REMARK   40  A    between atoms: _123  and  _124
REMARK   41  A    between atoms: _132  and  _133
REMARK   42  A    between atoms: _141  and  _143
REMARK   43  A    between atoms: _143  and  _144
REMARK   44  A    between atoms: _143  and  _146
REMARK   45  A    between atoms: _146  and  _147
REMARK   46  A    between atoms: _147  and  _148
REMARK   47  A    between atoms: _151  and  _153
REMARK   48  A    between atoms: _153  and  _154
REMARK   49  A    between atoms: _153  and  _156
REMARK   50  A    between atoms: _156  and  _157
REMARK   51  A    between atoms: _162  and  _164
REMARK   52  A    between atoms: _164  and  _165
REMARK   53  A    between atoms: _164  and  _167
REMARK   54  A    between atoms: _167  and  _168
REMARK   55  A    between atoms: _168  and  _169
REMARK   56  A    between atoms: _172  and  _174
REMARK   57  A    between atoms: _174  and  _175
REMARK   58  A    between atoms: _174  and  _177
REMARK   59  A    between atoms: _177  and  _178
REMARK   60  A    between atoms: _181  and  _183
REMARK   61  A    between atoms: _183  and  _184
REMARK   62  A    between atoms: _183  and  _186
REMARK   63  A    between atoms: _186  and  _187
REMARK   64  A    between atoms: _188  and  ZN_408
REMARK   65  A    between atoms: _192  and  _194
REMARK   66  A    between atoms: _194  and  _195
REMARK   67  A    between atoms: _194  and  _197
REMARK   68  A    between atoms: _197  and  _198
REMARK   69  A    between atoms: _201  and  _203
REMARK   70  A    between atoms: _203  and  _204
REMARK   71  A    between atoms: _203  and  _206
REMARK   72  A    between atoms: _209  and  _211
REMARK   73  A    between atoms: _211  and  _212
REMARK   74  A    between atoms: _211  and  _214
REMARK   75  A    between atoms: _214  and  _215
REMARK   76  A    between atoms: _220  and  _222
REMARK   77  A    between atoms: _222  and  _223
REMARK   78  A    between atoms: _222  and  _225
REMARK   79  A    between atoms: _225  and  _226
REMARK   80  A    between atoms: _232  and  _234
REMARK   81  A    between atoms: _234  and  _235
REMARK   82  A    between atoms: _234  and  _237
REMARK   83  A    between atoms: _240  and  _242
REMARK   84  A    between atoms: _242  and  _243
REMARK   85  A    between atoms: _242  and  _245
REMARK   86  A    between atoms: _245  and  _246
REMARK   87  A    between atoms: _249  and  _251
REMARK   88  A    between atoms: _251  and  _252
REMARK   89  A    between atoms: _255  and  _257
REMARK   90  A    between atoms: _257  and  _258
REMARK   91  A    between atoms: _257  and  _260
REMARK   92  A    between atoms: _263  and  _265
REMARK   93  A    between atoms: _265  and  _266
REMARK   94  A    between atoms: _265  and  _268
REMARK   95  A    between atoms: _268  and  _269
REMARK   96  A    between atoms: _272  and  _274
REMARK   97  A    between atoms: _274  and  _275
REMARK   98  A    between atoms: _277  and  _279
REMARK   99  A    between atoms: _279  and  _280
REMARK  100  A    between atoms: _282  and  _284
REMARK  101  A    between atoms: _284  and  _285
REMARK  102  A    between atoms: _284  and  _287
REMARK  103  A    between atoms: _287  and  _288
REMARK  104  A    between atoms: _290  and  _292
REMARK  105  A    between atoms: _292  and  _293
REMARK  106  A    between atoms: _292  and  _295
REMARK  107  A    between atoms: _295  and  _296
REMARK  108  A    between atoms: _299  and  _301
REMARK  109  A    between atoms: _301  and  _302
REMARK  110  A    between atoms: _301  and  _304
REMARK  111  A    between atoms: _304  and  _305
REMARK  112  A    between atoms: _308  and  _310
REMARK  113  A    between atoms: _310  and  _311
REMARK  114  A    between atoms: _310  and  _313
REMARK  115  A    between atoms: _313  and  _314
REMARK  116  A    between atoms: _318  and  _319
REMARK  117  A    between atoms: _325  and  _326
REMARK  118  A    between atoms: _331  and  _333
REMARK  119  A    between atoms: _333  and  _334
REMARK  120  A    between atoms: _333  and  _336
REMARK  121  A    between atoms: _336  and  _337
REMARK  122  A    between atoms: _340  and  _342
REMARK  123  A    between atoms: _342  and  _343
REMARK  124  A    between atoms: _342  and  _345
REMARK  125  A    between atoms: _345  and  _346
REMARK  126  A    between atoms: _349  and  _351
REMARK  127  A    between atoms: _351  and  _352
REMARK  128  A    between atoms: _351  and  _354
REMARK  129  A    between atoms: _356  and  _358
REMARK  130  A    between atoms: _358  and  _359
REMARK  131  A    between atoms: _358  and  _361
REMARK  132  A    between atoms: _364  and  _366
REMARK  133  A    between atoms: _366  and  _367
REMARK  134  A    between atoms: _366  and  _369
REMARK  135  A    between atoms: _369  and  _370
REMARK  136  A    between atoms: _380  and  _382
REMARK  137  A    between atoms: _382  and  _383
REMARK  138  A    between atoms: _382  and  _385
REMARK  139  A    between atoms: _385  and  _386
REMARK  140  A    between atoms: _391  and  _393
REMARK  141  A    between atoms: _393  and  _394
REMARK  142  A    between atoms: _393  and  _396
REMARK  143  A    between atoms: _396  and  _397
REMARK  144  A    between atoms: _397  and  _398
REMARK  145  A    between atoms: _398  and  _399
REMARK                            x       y       z     vdW  Elec       q    Type
REMARK                         _______ _______ _______ _____ _____    ______ ____
ROOT
ATOM      1  CA  VAL A   1      -3.968  11.551  19.669  0.00  0.00    +0.133 C 
ENDROOT
BRANCH   1   2
ATOM      2  CB  VAL A   1      -3.336  10.839  18.436  0.00  0.00    +0.023 C 
ATOM      3  CG2 VAL A   1      -2.473  11.792  17.600  0.00  0.00    +0.002 C 
ATOM      4  CG1 VAL A   1      -4.422  10.179  17.599  0.00  0.00    +0.002 C 
ENDBRANCH   1   2
BRANCH   1   5
ATOM      5  N   VAL A   1      -4.853  12.663  19.296  0.00  0.00    -0.239 NA
ATOM      6  H   VAL A   1      -4.858  13.036  18.325  0.00  0.00    +0.142 HD
ENDBRANCH   1   5
BRANCH   1   7
ATOM      7  C   VAL A   1      -2.860  12.003  20.615  0.00  0.00    +0.224 C 
ATOM      8  O   VAL A   1      -2.156  11.168  21.175  0.00  0.00    -0.287 OA
ENDBRANCH   1   7
TORSDOF 3
REMARK  Name = ../refined-set-2016/4ruz/4ruz_pocket.pdb
REMARK  145 active torsions:
REMARK  status: ('A' for Active; 'I' for Inactive)
REMARK    1  A    between atoms: _1  and  _3
REMARK    2  A    between atoms: _3  and  _4
REMARK    3  A    between atoms: _3  and  _6
REMARK    4  A    between atoms: _6  and  _7
REMARK    5  A    between atoms: _17  and  _19
REMARK    6  A    between atoms: _19  and  _20
REMARK    7  A    between atoms: _19  and  _22
REMARK    8  A    between atoms: _22  and  _23
REMARK    9  A    between atoms: _28  and  _29
REMARK   10  A    between atoms: _31  and  _33
REMARK   11  A    between atoms: _33  and  _34
REMARK   12  A    between atoms: _33  and  _36
REMARK   13  A    between atoms: _36  and  _37
REMARK   14  A    between atoms: _40  and  _41
REMARK   15  A    between atoms: _46  and  _48
REMARK   16  A    between atoms: _48  and  _49
REMARK   17  A    between atoms: _48  and  _51
REMARK   18  A    between atoms: _51  and  _52
REMARK   19  A    between atoms: _57  and  _59
REMARK   20  A    between atoms: _59  and  _60
REMARK   21  A    between atoms: _63  and  _65
REMARK   22  A    between atoms: _65  and  _66
REMARK   23  A    between atoms: _65  and  _68
REMARK   24  A    between atoms: _68  and  _69
REMARK   25  A    between atoms: _74  and  _76
REMARK   26  A    between atoms: _76  and  _77
REMARK   27  A    between atoms: _76  and  _79
REMARK   28  A    between atoms: _79  and  _80
REMARK   29  A    between atoms: _83  and  _85
REMARK   30  A    between atoms: _85  and  _86
REMARK   31  A    between atoms: _85  and  _88
REMARK   32  A    between atoms: _88  and  _89
REMARK   33  A    between atoms: _89  and  _90
REMARK   34  A    between atoms: _95  and  _97
REMARK   35  A    between atoms: _97  and  _98
REMARK   36  A    between atoms: _97  and  _100
REMARK   37  A    between atoms: _100  and  _101
REMARK   38  A    between atoms: _107  and  _109
REMARK   39  A    between atoms: _120  and  _123
REMARK   40  A    between atoms: _123  and  _124
REMARK   41  A    between atoms: _132  and  _133
REMARK   42  A    between atoms: _141  and  _143
REMARK   43  A    between atoms: _143  and  _144
REMARK   44  A    between atoms: _143  and  _146
REMARK   45  A    between atoms: _146  and  _147
REMARK   46  A    between atoms: _147  and  _148
REMARK   47  A    between atoms: _151  and  _153
REMARK   48  A    between atoms: _153  and  _154
REMARK   49  A    between atoms: _153  and  _156
REMARK   50  A    between atoms: _156  and  _157
REMARK   51  A    between atoms: _162  and  _164
REMARK   52  A    between atoms: _164  and  _165
REMARK   53  A    between atoms: _164  and  _167
REMARK   54  A    between atoms: _167  and  _168
REMARK   55  A    between atoms: _168  and  _169
REMARK   56  A    between atoms: _172  and  _174
REMARK   57  A    between atoms: _174  and  _175
REMARK   58  A    between atoms: _174  and  _177
REMARK   59  A    between atoms: _177  and  _178
REMARK   60  A    between atoms: _181  and  _183
REMARK   61  A    between atoms: _183  and  _184
REMARK   62  A    between atoms: _183  and  _186
REMARK   63  A    between atoms: _186  and  _187
REMARK   64  A    between atoms: _188  and  ZN_408
REMARK   65  A    between atoms: _192  and  _194
REMARK   66  A    between atoms: _194  and  _195
REMARK   67  A    between atoms: _194  and  _197
REMARK   68  A    between atoms: _197  and  _198
REMARK   69  A    between atoms: _201  and  _203
REMARK   70  A    between atoms: _203  and  _204
REMARK   71  A    between atoms: _203  and  _206
REMARK   72  A    between atoms: _209  and  _211
REMARK   73  A    between atoms: _211  and  _212
REMARK   74  A    between atoms: _211  and  _214
REMARK   75  A    between atoms: _214  and  _215
REMARK   76  A    between atoms: _220  and  _222
REMARK   77  A    between atoms: _222  and  _223
REMARK   78  A    between atoms: _222  and  _225
REMARK   79  A    between atoms: _225  and  _226
REMARK   80  A    between atoms: _232  and  _234
REMARK   81  A    between atoms: _234  and  _235
REMARK   82  A    between atoms: _234  and  _237
REMARK   83  A    between atoms: _240  and  _242
REMARK   84  A    between atoms: _242  and  _243
REMARK   85  A    between atoms: _242  and  _245
REMARK   86  A    between atoms: _245  and  _246
REMARK   87  A    between atoms: _249  and  _251
REMARK   88  A    between atoms: _251  and  _252
REMARK   89  A    between atoms: _255  and  _257
REMARK   90  A    between atoms: _257  and  _258
REMARK   91  A    between atoms: _257  and  _260
REMARK   92  A    between atoms: _263  and  _265
REMARK   93  A    between atoms: _265  and  _266
REMARK   94  A    between atoms: _265  and  _268
REMARK   95  A    between atoms: _268  and  _269
REMARK   96  A    between atoms: _272  and  _274
REMARK   97  A    between atoms: _274  and  _275
REMARK   98  A    between atoms: _277  and  _279
REMARK   99  A    between atoms: _279  and  _280
REMARK  100  A    between atoms: _282  and  _284
REMARK  101  A    between atoms: _284  and  _285
REMARK  102  A    between atoms: _284  and  _287
REMARK  103  A    between atoms: _287  and  _288
REMARK  104  A    between atoms: _290  and  _292
REMARK  105  A    between atoms: _292  and  _293
REMARK  106  A    between atoms: _292  and  _295
REMARK  107  A    between atoms: _295  and  _296
REMARK  108  A    between atoms: _299  and  _301
REMARK  109  A    between atoms: _301  and  _302
REMARK  110  A    between atoms: _301  and  _304
REMARK  111  A    between atoms: _304  and  _305
REMARK  112  A    between atoms: _308  and  _310
REMARK  113  A    between atoms: _310  and  _311
REMARK  114  A    between atoms: _310  and  _313
REMARK  115  A    between atoms: _313  and  _314
REMARK  116  A    between atoms: _318  and  _319
REMARK  117  A    between atoms: _325  and  _326
REMARK  118  A    between atoms: _331  and  _333
REMARK  119  A    between atoms: _333  and  _334
REMARK  120  A    between atoms: _333  and  _336
REMARK  121  A    between atoms: _336  and  _337
REMARK  122  A    between atoms: _340  and  _342
REMARK  123  A    between atoms: _342  and  _343
REMARK  124  A    between atoms: _342  and  _345
REMARK  125  A    between atoms: _345  and  _346
REMARK  126  A    between atoms: _349  and  _351
REMARK  127  A    between atoms: _351  and  _352
REMARK  128  A    between atoms: _351  and  _354
REMARK  129  A    between atoms: _356  and  _358
REMARK  130  A    between atoms: _358  and  _359
REMARK  131  A    between atoms: _358  and  _361
REMARK  132  A    between atoms: _364  and  _366
REMARK  133  A    between atoms: _366  and  _367
REMARK  134  A    between atoms: _366  and  _369
REMARK  135  A    between atoms: _369  and  _370
REMARK  136  A    between atoms: _380  and  _382
REMARK  137  A    between atoms: _382  and  _383
REMARK  138  A    between atoms: _382  and  _385
REMARK  139  A    between atoms: _385  and  _386
REMARK  140  A    between atoms: _391  and  _393
REMARK  141  A    between atoms: _393  and  _394
REMARK  142  A    between atoms: _393  and  _396
REMARK  143  A    between atoms: _396  and  _397
REMARK  144  A    between atoms: _397  and  _398
REMARK  145  A    between atoms: _398  and  _399
REMARK                            x       y       z     vdW  Elec       q    Type
REMARK                         _______ _______ _______ _____ _____    ______ ____
ROOT
ATOM      1  CA  VAL A   3     -11.947   2.882  19.986  0.00  0.00    +0.149 C 
ENDROOT
BRANCH   1   3
ATOM      2  C   ALA A   2     -12.368   5.117  20.746  0.00  0.00    +0.241 C 
ATOM      3  N   VAL A   3     -11.865   3.915  20.998  0.00  0.00    -0.297 N 
ATOM      4  H   VAL A   3     -11.416   3.716  21.915  0.00  0.00    +0.150 HD
ATOM      5  O   ALA A   2     -12.813   5.428  19.640  0.00  0.00    -0.273 OA
BRANCH   2   6
ATOM      6  CA  ALA A   2     -12.329   6.129  21.875  0.00  0.00    +0.149 C 
ATOM      7  CB  ALA A   2     -13.740   6.538  22.305  0.00  0.00    +0.031 C 
BRANCH   6  10
ATOM      8  C   LEU A   1     -10.532   7.742  22.048  0.00  0.00    +0.238 C 
ATOM      9  O   LEU A   1     -10.248   7.432  23.208  0.00  0.00    -0.274 OA
ATOM     10  N   ALA A   2     -11.584   7.273  21.393  0.00  0.00    -0.297 N 
ATOM     11  H   ALA A   2     -11.882   7.738  20.512  0.00  0.00    +0.150 HD
BRANCH   8  12
ATOM     12  CA  LEU A   1      -9.649   8.676  21.247  0.00  0.00    +0.145 C 
BRANCH  12  13
ATOM     13  N   LEU A   1      -8.964   9.635  22.096  0.00  0.00    -0.238 NA
ATOM     14  H   LEU A   1      -8.387   9.283  22.886  0.00  0.00    +0.142 HD
ENDBRANCH  12  13
BRANCH  12  15
ATOM     15  CB  LEU A   1      -8.650   7.833  20.449  0.00  0.00    +0.026 C 
BRANCH  15  16
ATOM     16  CG  LEU A   1      -7.718   8.473  19.423  0.00  0.00    +0.002 C 
ATOM     17  CD2 LEU A   1      -7.097   7.362  18.563  0.00  0.00    +0.000 C 
ATOM     18  CD1 LEU A   1      -8.402   9.504  18.553  0.00  0.00    +0.000 C 
ENDBRANCH  15  16
ENDBRANCH  12  15
ENDBRANCH   8  12
ENDBRANCH   6  10
ENDBRANCH   2   6
ENDBRANCH   1   3
BRANCH   1  19
ATOM     19  C   VAL A   3     -12.899   1.791  20.479  0.00  0.00    +0.241 C 
ATOM     20  O   VAL A   3     -12.761   1.288  21.597  0.00  0.00    -0.273 OA
ATOM     21  N   LEU A   4     -13.891   1.487  19.648  0.00  0.00    -0.297 N 
ATOM     22  H   LEU A   4     -13.970   2.024  18.761  0.00  0.00    +0.150 HD
BRANCH  21  23
ATOM     23  CA  LEU A   4     -14.869   0.450  19.907  0.00  0.00    +0.149 C 
BRANCH  23  24
ATOM     24  C   LEU A   4     -14.358  -0.832  19.249  0.00  0.00    +0.241 C 
ATOM     25  N   GLY A   5     -14.049  -1.836  20.062  0.00  0.00    -0.296 N 
ATOM     26  H   GLY A   5     -14.229  -1.738  21.082  0.00  0.00    +0.150 HD
ATOM     27  O   LEU A   4     -14.201  -0.887  18.026  0.00  0.00    -0.273 OA
BRANCH  25  28
ATOM     28  CA  GLY A   5     -13.466  -3.067  19.560  0.00  0.00    +0.163 C 
BRANCH  28  29
ATOM     29  C   GLY A   5     -14.518  -4.152  19.551  0.00  0.00    +0.229 C 
ATOM     30  O   GLY A   5     -15.261  -4.315  20.526  0.00  0.00    -0.286 OA
ENDBRANCH  28  29
ENDBRANCH  25  28
ENDBRANCH  23  24
BRANCH  23  31
ATOM     31  CB  LEU A   4     -16.234   0.870  19.357  0.00  0.00    +0.029 C 
BRANCH  31  32
ATOM     32  CG  LEU A   4     -17.410  -0.081  19.528  0.00  0.00    +0.002 C 
ATOM     33  CD2 LEU A   4     -17.669  -0.343  20.999  0.00  0.00    +0.000 C 
ATOM     34  CD1 LEU A   4     -18.649   0.521  18.859  0.00  0.00    +0.000 C 
ENDBRANCH  31  32
ENDBRANCH  23  31
ENDBRANCH  21  23
ENDBRANCH   1  19
BRANCH   1  35
ATOM     35  CB  VAL A   3     -10.563   2.287  19.642  0.00  0.00    +0.027 C 
ATOM     36  CG2 VAL A   3      -9.601   3.399  19.272  0.00  0.00    +0.002 C 
ATOM     37  CG1 VAL A   3     -10.706   1.319  18.473  0.00  0.00    +0.002 C 
ENDBRANCH   1  35
TORSDOF 15
REMARK  Name = ../refined-set-2016/4ruz/4ruz_pocket.pdb
REMARK  145 active torsions:
REMARK  status: ('A' for Active; 'I' for Inactive)
REMARK    1  A    between atoms: _1  and  _3
REMARK    2  A    between atoms: _3  and  _4
REMARK    3  A    between atoms: _3  and  _6
REMARK    4  A    between atoms: _6  and  _7
REMARK    5  A    between atoms: _17  and  _19
REMARK    6  A    between atoms: _19  and  _20
REMARK    7  A    between atoms: _19  and  _22
REMARK    8  A    between atoms: _22  and  _23
REMARK    9  A    between atoms: _28  and  _29
REMARK   10  A    between atoms: _31  and  _33
REMARK   11  A    between atoms: _33  and  _34
REMARK   12  A    between atoms: _33  and  _36
REMARK   13  A    between atoms: _36  and  _37
REMARK   14  A    between atoms: _40  and  _41
REMARK   15  A    between atoms: _46  and  _48
REMARK   16  A    between atoms: _48  and  _49
REMARK   17  A    between atoms: _48  and  _51
REMARK   18  A    between atoms: _51  and  _52
REMARK   19  A    between atoms: _57  and  _59
REMARK   20  A    between atoms: _59  and  _60
REMARK   21  A    between atoms: _63  and  _65
REMARK   22  A    between atoms: _65  and  _66
REMARK   23  A    between atoms: _65  and  _68
REMARK   24  A    between atoms: _68  and  _69
REMARK   25  A    between atoms: _74  and  _76
REMARK   26  A    between atoms: _76  and  _77
REMARK   27  A    between atoms: _76  and  _79
REMARK   28  A    between atoms: _79  and  _80
REMARK   29  A    between atoms: _83  and  _85
REMARK   30  A    between atoms: _85  and  _86
REMARK   31  A    between atoms: _85  and  _88
REMARK   32  A    between atoms: _88  and  _89
REMARK   33  A    between atoms: _89  and  _90
REMARK   34  A    between atoms: _95  and  _97
REMARK   35  A    between atoms: _97  and  _98
REMARK   36  A    between atoms: _97  and  _100
REMARK   37  A    between atoms: _100  and  _101
REMARK   38  A    between atoms: _107  and  _109
REMARK   39  A    between atoms: _120  and  _123
REMARK   40  A    between atoms: _123  and  _124
REMARK   41  A    between atoms: _132  and  _133
REMARK   42  A    between atoms: _141  and  _143
REMARK   43  A    between atoms: _143  and  _144
REMARK   44  A    between atoms: _143  and  _146
REMARK   45  A    between atoms: _146  and  _147
REMARK   46  A    between atoms: _147  and  _148
REMARK   47  A    between atoms: _151  and  _153
REMARK   48  A    between atoms: _153  and  _154
REMARK   49  A    between atoms: _153  and  _156
REMARK   50  A    between atoms: _156  and  _157
REMARK   51  A    between atoms: _162  and  _164
REMARK   52  A    between atoms: _164  and  _165
REMARK   53  A    between atoms: _164  and  _167
REMARK   54  A    between atoms: _167  and  _168
REMARK   55  A    between atoms: _168  and  _169
REMARK   56  A    between atoms: _172  and  _174
REMARK   57  A    between atoms: _174  and  _175
REMARK   58  A    between atoms: _174  and  _177
REMARK   59  A    between atoms: _177  and  _178
REMARK   60  A    between atoms: _181  and  _183
REMARK   61  A    between atoms: _183  and  _184
REMARK   62  A    between atoms: _183  and  _186
REMARK   63  A    between atoms: _186  and  _187
REMARK   64  A    between atoms: _188  and  ZN_408
REMARK   65  A    between atoms: _192  and  _194
REMARK   66  A    between atoms: _194  and  _195
REMARK   67  A    between atoms: _194  and  _197
REMARK   68  A    between atoms: _197  and  _198
REMARK   69  A    between atoms: _201  and  _203
REMARK   70  A    between atoms: _203  and  _204
REMARK   71  A    between atoms: _203  and  _206
REMARK   72  A    between atoms: _209  and  _211
REMARK   73  A    between atoms: _211  and  _212
REMARK   74  A    between atoms: _211  and  _214
REMARK   75  A    between atoms: _214  and  _215
REMARK   76  A    between atoms: _220  and  _222
REMARK   77  A    between atoms: _222  and  _223
REMARK   78  A    between atoms: _222  and  _225
REMARK   79  A    between atoms: _225  and  _226
REMARK   80  A    between atoms: _232  and  _234
REMARK   81  A    between atoms: _234  and  _235
REMARK   82  A    between atoms: _234  and  _237
REMARK   83  A    between atoms: _240  and  _242
REMARK   84  A    between atoms: _242  and  _243
REMARK   85  A    between atoms: _242  and  _245
REMARK   86  A    between atoms: _245  and  _246
REMARK   87  A    between atoms: _249  and  _251
REMARK   88  A    between atoms: _251  and  _252
REMARK   89  A    between atoms: _255  and  _257
REMARK   90  A    between atoms: _257  and  _258
REMARK   91  A    between atoms: _257  and  _260
REMARK   92  A    between atoms: _263  and  _265
REMARK   93  A    between atoms: _265  and  _266
REMARK   94  A    between atoms: _265  and  _268
REMARK   95  A    between atoms: _268  and  _269
REMARK   96  A    between atoms: _272  and  _274
REMARK   97  A    between atoms: _274  and  _275
REMARK   98  A    between atoms: _277  and  _279
REMARK   99  A    between atoms: _279  and  _280
REMARK  100  A    between atoms: _282  and  _284
REMARK  101  A    between atoms: _284  and  _285
REMARK  102  A    between atoms: _284  and  _287
REMARK  103  A    between atoms: _287  and  _288
REMARK  104  A    between atoms: _290  and  _292
REMARK  105  A    between atoms: _292  and  _293
REMARK  106  A    between atoms: _292  and  _295
REMARK  107  A    between atoms: _295  and  _296
REMARK  108  A    between atoms: _299  and  _301
REMARK  109  A    between atoms: _301  and  _302
REMARK  110  A    between atoms: _301  and  _304
REMARK  111  A    between atoms: _304  and  _305
REMARK  112  A    between atoms: _308  and  _310
REMARK  113  A    between atoms: _310  and  _311
REMARK  114  A    between atoms: _310  and  _313
REMARK  115  A    between atoms: _313  and  _314
REMARK  116  A    between atoms: _318  and  _319
REMARK  117  A    between atoms: _325  and  _326
REMARK  118  A    between atoms: _331  and  _333
REMARK  119  A    between atoms: _333  and  _334
REMARK  120  A    between atoms: _333  and  _336
REMARK  121  A    between atoms: _336  and  _337
REMARK  122  A    between atoms: _340  and  _342
REMARK  123  A    between atoms: _342  and  _343
REMARK  124  A    between atoms: _342  and  _345
REMARK  125  A    between atoms: _345  and  _346
REMARK  126  A    between atoms: _349  and  _351
REMARK  127  A    between atoms: _351  and  _352
REMARK  128  A    between atoms: _351  and  _354
REMARK  129  A    between atoms: _356  and  _358
REMARK  130  A    between atoms: _358  and  _359
REMARK  131  A    between atoms: _358  and  _361
REMARK  132  A    between atoms: _364  and  _366
REMARK  133  A    between atoms: _366  and  _367
REMARK  134  A    between atoms: _366  and  _369
REMARK  135  A    between atoms: _369  and  _370
REMARK  136  A    between atoms: _380  and  _382
REMARK  137  A    between atoms: _382  and  _383
REMARK  138  A    between atoms: _382  and  _385
REMARK  139  A    between atoms: _385  and  _386
REMARK  140  A    between atoms: _391  and  _393
REMARK  141  A    between atoms: _393  and  _394
REMARK  142  A    between atoms: _393  and  _396
REMARK  143  A    between atoms: _396  and  _397
REMARK  144  A    between atoms: _397  and  _398
REMARK  145  A    between atoms: _398  and  _399
REMARK                            x       y       z     vdW  Elec       q    Type
REMARK                         _______ _______ _______ _____ _____    ______ ____
ROOT
ATOM      1  CA  THR A   5       0.251   0.214  16.093  0.00  0.00    +0.176 C 
ENDROOT
BRANCH   1   2
ATOM      2  C   THR A   5       1.068   1.446  16.397  0.00  0.00    +0.246 C 
ATOM      3  O   THR A   5       0.578   2.382  17.030  0.00  0.00    -0.273 OA
ATOM      4  N   PRO A   6       2.314   1.470  15.917  0.00  0.00    -0.272 N 
ATOM      5  CA  PRO A   6       3.045   2.736  16.017  0.00  0.00    +0.152 C 
ATOM      6  CB  PRO A   6       4.298   2.467  15.169  0.00  0.00    +0.031 C 
ATOM      7  CG  PRO A   6       4.545   0.990  15.379  0.00  0.00    +0.024 C 
ATOM      8  CD  PRO A   6       3.140   0.384  15.353  0.00  0.00    +0.094 C 
BRANCH   5   9
ATOM      9  C   PRO A   6       2.183   3.884  15.464  0.00  0.00    +0.244 C 
ATOM     10  N   PRO A   7       2.231   5.061  16.098  0.00  0.00    -0.272 N 
ATOM     11  CA  PRO A   7       3.148   5.472  17.174  0.00  0.00    +0.152 C 
ATOM     12  CB  PRO A   7       3.095   7.001  17.083  0.00  0.00    +0.031 C 
ATOM     13  CG  PRO A   7       1.714   7.290  16.581  0.00  0.00    +0.024 C 
ATOM     14  CD  PRO A   7       1.431   6.195  15.590  0.00  0.00    +0.094 C 
ATOM     15  O   PRO A   6       1.469   3.694  14.470  0.00  0.00    -0.273 OA
BRANCH  11  16
ATOM     16  C   PRO A   7       2.795   5.010  18.606  0.00  0.00    +0.241 C 
ATOM     17  O   PRO A   7       3.462   5.457  19.548  0.00  0.00    -0.273 OA
ATOM     18  N   LEU A   8       1.792   4.142  18.760  0.00  0.00    -0.297 N 
ATOM     19  H   LEU A   8       1.203   3.905  17.936  0.00  0.00    +0.150 HD
BRANCH  18  20
ATOM     20  CA  LEU A   8       1.490   3.509  20.055  0.00  0.00    +0.149 C 
BRANCH  20  21
ATOM     21  C   LEU A   8       1.124   4.528  21.139  0.00  0.00    +0.241 C 
ATOM     22  O   LEU A   8       1.302   4.274  22.333  0.00  0.00    -0.273 OA
ATOM     23  N   LEU A   9       0.579   5.666  20.720  0.00  0.00    -0.298 N 
ATOM     24  H   LEU A   9       0.354   5.783  19.711  0.00  0.00    +0.150 HD
BRANCH  23  25
ATOM     25  CA  LEU A   9       0.291   6.753  21.649  0.00  0.00    +0.137 C 
BRANCH  25  26
ATOM     26  C   LEU A   9      -0.754   6.346  22.692  0.00  0.00    +0.227 C 
ATOM     27  O   LEU A   9      -1.711   5.622  22.389  0.00  0.00    -0.286 OA
ENDBRANCH  25  26
BRANCH  25  28
ATOM     28  CB  LEU A   9      -0.186   7.989  20.876  0.00  0.00    +0.028 C 
BRANCH  28  29
ATOM     29  CG  LEU A   9       0.888   8.542  19.943  0.00  0.00    +0.002 C 
ATOM     30  CD2 LEU A   9       2.032   9.089  20.782  0.00  0.00    +0.000 C 
ATOM     31  CD1 LEU A   9       0.307   9.632  19.044  0.00  0.00    +0.000 C 
ENDBRANCH  28  29
ENDBRANCH  25  28
ENDBRANCH  23  25
ENDBRANCH  20  21
BRANCH  20  32
ATOM     32  CB  LEU A   8       2.676   2.647  20.533  0.00  0.00    +0.029 C 
BRANCH  32  33
ATOM     33  CG  LEU A   8       3.037   1.463  19.624  0.00  0.00    +0.002 C 
ATOM     34  CD2 LEU A   8       4.348   0.804  20.074  0.00  0.00    +0.000 C 
ATOM     35  CD1 LEU A   8       1.911   0.427  19.576  0.00  0.00    +0.000 C 
ENDBRANCH  32  33
ENDBRANCH  20  32
ENDBRANCH  18  20
ENDBRANCH  11  16
ENDBRANCH   5   9
ENDBRANCH   1   2
BRANCH   1  38
ATOM     36  C   THR A   4      -1.017  -0.947  17.833  0.00  0.00    +0.243 C 
ATOM     37  O   THR A   4      -0.422  -2.005  17.653  0.00  0.00    -0.273 OA
ATOM     38  N   THR A   5      -0.855   0.126  17.052  0.00  0.00    -0.295 N 
ATOM     39  H   THR A   5      -1.528   0.915  17.126  0.00  0.00    +0.150 HD
BRANCH  36  40
ATOM     40  CA  THR A   4      -2.036  -0.840  18.962  0.00  0.00    +0.176 C 
BRANCH  40  43
ATOM     41  C   LEU A   3      -2.241   1.419  19.786  0.00  0.00    +0.241 C 
ATOM     42  O   LEU A   3      -1.237   1.271  20.497  0.00  0.00    -0.273 OA
ATOM     43  N   THR A   4      -2.705   0.461  18.991  0.00  0.00    -0.295 N 
ATOM     44  H   THR A   4      -3.538   0.635  18.393  0.00  0.00    +0.150 HD
BRANCH  41  45
ATOM     45  CA  LEU A   3      -2.974   2.751  19.778  0.00  0.00    +0.149 C 
BRANCH  45  48
ATOM     46  C   SER A   2      -3.500   2.601  22.133  0.00  0.00    +0.243 C 
ATOM     47  O   SER A   2      -4.285   1.676  21.955  0.00  0.00    -0.273 OA
ATOM     48  N   LEU A   3      -2.965   3.292  21.131  0.00  0.00    -0.297 N 
ATOM     49  H   LEU A   3      -2.538   4.223  21.314  0.00  0.00    +0.150 HD
BRANCH  46  50
ATOM     50  CA  SER A   2      -3.052   2.992  23.535  0.00  0.00    +0.178 C 
BRANCH  50  53
ATOM     51  C   GLY A   1      -4.278   3.016  25.659  0.00  0.00    +0.240 C 
ATOM     52  O   GLY A   1      -4.210   4.249  25.787  0.00  0.00    -0.274 OA
ATOM     53  N   SER A   2      -3.852   2.358  24.589  0.00  0.00    -0.295 N 
ATOM     54  H   SER A   2      -4.095   1.351  24.493  0.00  0.00    +0.150 HD
BRANCH  51  55
ATOM     55  CA  GLY A   1      -4.884   2.158  26.751  0.00  0.00    +0.169 C 
BRANCH  55  56
ATOM     56  N   GLY A   1      -5.989   2.784  27.460  0.00  0.00    -0.236 NA
ATOM     57  H   GLY A   1      -6.594   3.480  26.979  0.00  0.00    +0.142 HD
ENDBRANCH  55  56
ENDBRANCH  51  55
ENDBRANCH  50  53
BRANCH  50  58
ATOM     58  CB  SER A   2      -1.575   2.611  23.698  0.00  0.00    +0.166 C 
BRANCH  58  59
ATOM     59  OG  SER A   2      -1.368   1.251  23.307  0.00  0.00    -0.380 OA
ATOM     60  H   SER A   2      -1.629   1.138  22.359  0.00  0.00    +0.211 HD
ENDBRANCH  58  59
ENDBRANCH  50  58
ENDBRANCH  46  50
ENDBRANCH  45  48
BRANCH  45  61
ATOM     61  CB  LEU A   3      -2.288   3.705  18.807  0.00  0.00    +0.029 C 
BRANCH  61  62
ATOM     62  CG  LEU A   3      -2.747   5.156  18.797  0.00  0.00    +0.002 C 
ATOM     63  CD2 LEU A   3      -4.233   5.251  18.451  0.00  0.00    +0.000 C 
ATOM     64  CD1 LEU A   3      -1.900   5.886  17.776  0.00  0.00    +0.000 C 
ENDBRANCH  61  62
ENDBRANCH  45  61
ENDBRANCH  41  45
ENDBRANCH  40  43
BRANCH  40  65
ATOM     65  CB  THR A   4      -3.032  -1.997  18.816  0.00  0.00    +0.137 C 
ATOM     66  CG2 THR A   4      -4.082  -1.962  19.936  0.00  0.00    +0.034 C 
BRANCH  65  67
ATOM     67  OG1 THR A   4      -3.670  -1.918  17.535  0.00  0.00    -0.382 OA
ATOM     68  HG1 THR A   4      -4.313  -2.665  17.441  0.00  0.00    +0.210 HD
ENDBRANCH  65  67
ENDBRANCH  40  65
ENDBRANCH  36  40
ENDBRANCH   1  38
BRANCH   1  69
ATOM     69  CB  THR A   5      -0.228   0.295  14.633  0.00  0.00    +0.137 C 
ATOM     70  CG2 THR A   5      -1.199  -0.834  14.320  0.00  0.00    +0.034 C 
BRANCH  69  71
ATOM     71  OG1 THR A   5      -0.865   1.563  14.405  0.00  0.00    -0.382 OA
ATOM     72  HG1 THR A   5      -1.172   1.612  13.465  0.00  0.00    +0.210 HD
ENDBRANCH  69  71
ENDBRANCH   1  69
TORSDOF 28
REMARK  Name = ../refined-set-2016/4ruz/4ruz_pocket.pdb
REMARK  145 active torsions:
REMARK  status: ('A' for Active; 'I' for Inactive)
REMARK    1  A    between atoms: _1  and  _3
REMARK    2  A    between atoms: _3  and  _4
REMARK    3  A    between atoms: _3  and  _6
REMARK    4  A    between atoms: _6  and  _7
REMARK    5  A    between atoms: _17  and  _19
REMARK    6  A    between atoms: _19  and  _20
REMARK    7  A    between atoms: _19  and  _22
REMARK    8  A    between atoms: _22  and  _23
REMARK    9  A    between atoms: _28  and  _29
REMARK   10  A    between atoms: _31  and  _33
REMARK   11  A    between atoms: _33  and  _34
REMARK   12  A    between atoms: _33  and  _36
REMARK   13  A    between atoms: _36  and  _37
REMARK   14  A    between atoms: _40  and  _41
REMARK   15  A    between atoms: _46  and  _48
REMARK   16  A    between atoms: _48  and  _49
REMARK   17  A    between atoms: _48  and  _51
REMARK   18  A    between atoms: _51  and  _52
REMARK   19  A    between atoms: _57  and  _59
REMARK   20  A    between atoms: _59  and  _60
REMARK   21  A    between atoms: _63  and  _65
REMARK   22  A    between atoms: _65  and  _66
REMARK   23  A    between atoms: _65  and  _68
REMARK   24  A    between atoms: _68  and  _69
REMARK   25  A    between atoms: _74  and  _76
REMARK   26  A    between atoms: _76  and  _77
REMARK   27  A    between atoms: _76  and  _79
REMARK   28  A    between atoms: _79  and  _80
REMARK   29  A    between atoms: _83  and  _85
REMARK   30  A    between atoms: _85  and  _86
REMARK   31  A    between atoms: _85  and  _88
REMARK   32  A    between atoms: _88  and  _89
REMARK   33  A    between atoms: _89  and  _90
REMARK   34  A    between atoms: _95  and  _97
REMARK   35  A    between atoms: _97  and  _98
REMARK   36  A    between atoms: _97  and  _100
REMARK   37  A    between atoms: _100  and  _101
REMARK   38  A    between atoms: _107  and  _109
REMARK   39  A    between atoms: _120  and  _123
REMARK   40  A    between atoms: _123  and  _124
REMARK   41  A    between atoms: _132  and  _133
REMARK   42  A    between atoms: _141  and  _143
REMARK   43  A    between atoms: _143  and  _144
REMARK   44  A    between atoms: _143  and  _146
REMARK   45  A    between atoms: _146  and  _147
REMARK   46  A    between atoms: _147  and  _148
REMARK   47  A    between atoms: _151  and  _153
REMARK   48  A    between atoms: _153  and  _154
REMARK   49  A    between atoms: _153  and  _156
REMARK   50  A    between atoms: _156  and  _157
REMARK   51  A    between atoms: _162  and  _164
REMARK   52  A    between atoms: _164  and  _165
REMARK   53  A    between atoms: _164  and  _167
REMARK   54  A    between atoms: _167  and  _168
REMARK   55  A    between atoms: _168  and  _169
REMARK   56  A    between atoms: _172  and  _174
REMARK   57  A    between atoms: _174  and  _175
REMARK   58  A    between atoms: _174  and  _177
REMARK   59  A    between atoms: _177  and  _178
REMARK   60  A    between atoms: _181  and  _183
REMARK   61  A    between atoms: _183  and  _184
REMARK   62  A    between atoms: _183  and  _186
REMARK   63  A    between atoms: _186  and  _187
REMARK   64  A    between atoms: _188  and  ZN_408
REMARK   65  A    between atoms: _192  and  _194
REMARK   66  A    between atoms: _194  and  _195
REMARK   67  A    between atoms: _194  and  _197
REMARK   68  A    between atoms: _197  and  _198
REMARK   69  A    between atoms: _201  and  _203
REMARK   70  A    between atoms: _203  and  _204
REMARK   71  A    between atoms: _203  and  _206
REMARK   72  A    between atoms: _209  and  _211
REMARK   73  A    between atoms: _211  and  _212
REMARK   74  A    between atoms: _211  and  _214
REMARK   75  A    between atoms: _214  and  _215
REMARK   76  A    between atoms: _220  and  _222
REMARK   77  A    between atoms: _222  and  _223
REMARK   78  A    between atoms: _222  and  _225
REMARK   79  A    between atoms: _225  and  _226
REMARK   80  A    between atoms: _232  and  _234
REMARK   81  A    between atoms: _234  and  _235
REMARK   82  A    between atoms: _234  and  _237
REMARK   83  A    between atoms: _240  and  _242
REMARK   84  A    between atoms: _242  and  _243
REMARK   85  A    between atoms: _242  and  _245
REMARK   86  A    between atoms: _245  and  _246
REMARK   87  A    between atoms: _249  and  _251
REMARK   88  A    between atoms: _251  and  _252
REMARK   89  A    between atoms: _255  and  _257
REMARK   90  A    between atoms: _257  and  _258
REMARK   91  A    between atoms: _257  and  _260
REMARK   92  A    between atoms: _263  and  _265
REMARK   93  A    between atoms: _265  and  _266
REMARK   94  A    between atoms: _265  and  _268
REMARK   95  A    between atoms: _268  and  _269
REMARK   96  A    between atoms: _272  and  _274
REMARK   97  A    between atoms: _274  and  _275
REMARK   98  A    between atoms: _277  and  _279
REMARK   99  A    between atoms: _279  and  _280
REMARK  100  A    between atoms: _282  and  _284
REMARK  101  A    between atoms: _284  and  _285
REMARK  102  A    between atoms: _284  and  _287
REMARK  103  A    between atoms: _287  and  _288
REMARK  104  A    between atoms: _290  and  _292
REMARK  105  A    between atoms: _292  and  _293
REMARK  106  A    between atoms: _292  and  _295
REMARK  107  A    between atoms: _295  and  _296
REMARK  108  A    between atoms: _299  and  _301
REMARK  109  A    between atoms: _301  and  _302
REMARK  110  A    between atoms: _301  and  _304
REMARK  111  A    between atoms: _304  and  _305
REMARK  112  A    between atoms: _308  and  _310
REMARK  113  A    between atoms: _310  and  _311
REMARK  114  A    between atoms: _310  and  _313
REMARK  115  A    between atoms: _313  and  _314
REMARK  116  A    between atoms: _318  and  _319
REMARK  117  A    between atoms: _325  and  _326
REMARK  118  A    between atoms: _331  and  _333
REMARK  119  A    between atoms: _333  and  _334
REMARK  120  A    between atoms: _333  and  _336
REMARK  121  A    between atoms: _336  and  _337
REMARK  122  A    between atoms: _340  and  _342
REMARK  123  A    between atoms: _342  and  _343
REMARK  124  A    between atoms: _342  and  _345
REMARK  125  A    between atoms: _345  and  _346
REMARK  126  A    between atoms: _349  and  _351
REMARK  127  A    between atoms: _351  and  _352
REMARK  128  A    between atoms: _351  and  _354
REMARK  129  A    between atoms: _356  and  _358
REMARK  130  A    between atoms: _358  and  _359
REMARK  131  A    between atoms: _358  and  _361
REMARK  132  A    between atoms: _364  and  _366
REMARK  133  A    between atoms: _366  and  _367
REMARK  134  A    between atoms: _366  and  _369
REMARK  135  A    between atoms: _369  and  _370
REMARK  136  A    between atoms: _380  and  _382
REMARK  137  A    between atoms: _382  and  _383
REMARK  138  A    between atoms: _382  and  _385
REMARK  139  A    between atoms: _385  and  _386
REMARK  140  A    between atoms: _391  and  _393
REMARK  141  A    between atoms: _393  and  _394
REMARK  142  A    between atoms: _393  and  _396
REMARK  143  A    between atoms: _396  and  _397
REMARK  144  A    between atoms: _397  and  _398
REMARK  145  A    between atoms: _398  and  _399
REMARK                            x       y       z     vdW  Elec       q    Type
REMARK                         _______ _______ _______ _____ _____    ______ ____
ROOT
ATOM      1  C   CYS A   1      -5.929   7.649  23.865  0.00  0.00    +0.239 C 
ATOM      2  N   VAL A   2      -6.065   6.364  24.182  0.00  0.00    -0.298 N 
ATOM      3  H   VAL A   2      -5.292   5.863  24.664  0.00  0.00    +0.150 HD
ATOM      4  O   CYS A   1      -6.869   8.342  23.476  0.00  0.00    -0.274 OA
ENDROOT
BRANCH   1   5
ATOM      5  CA  CYS A   1      -4.549   8.264  24.004  0.00  0.00    +0.156 C 
BRANCH   5   6
ATOM      6  N   CYS A   1      -3.494   7.275  24.192  0.00  0.00    -0.237 NA
ATOM      7  H   CYS A   1      -3.441   6.469  23.537  0.00  0.00    +0.142 HD
ENDBRANCH   5   6
BRANCH   5   8
ATOM      8  CB  CYS A   1      -4.257   9.102  22.753  0.00  0.00    +0.095 C 
ATOM      9  SG  CYS A   1      -4.204   8.120  21.214  0.00  0.00    -0.080 S 
ENDBRANCH   5   8
ENDBRANCH   1   5
BRANCH   2  10
ATOM     10  CA  VAL A   2      -7.310   5.651  23.850  0.00  0.00    +0.137 C 
BRANCH  10  11
ATOM     11  CB  VAL A   2      -7.032   4.398  22.980  0.00  0.00    +0.026 C 
ATOM     12  CG2 VAL A   2      -8.345   3.712  22.601  0.00  0.00    +0.002 C 
ATOM     13  CG1 VAL A   2      -6.256   4.770  21.708  0.00  0.00    +0.002 C 
ENDBRANCH  10  11
BRANCH  10  14
ATOM     14  C   VAL A   2      -8.086   5.192  25.069  0.00  0.00    +0.227 C 
ATOM     15  O   VAL A   2      -7.524   4.575  25.970  0.00  0.00    -0.286 OA
ENDBRANCH  10  14
ENDBRANCH   2  10
TORSDOF 6
REMARK  Name = ../refined-set-2016/4ruz/4ruz_pocket.pdb
REMARK  145 active torsions:
REMARK  status: ('A' for Active; 'I' for Inactive)
REMARK    1  A    between atoms: _1  and  _3
REMARK    2  A    between atoms: _3  and  _4
REMARK    3  A    between atoms: _3  and  _6
REMARK    4  A    between atoms: _6  and  _7
REMARK    5  A    between atoms: _17  and  _19
REMARK    6  A    between atoms: _19  and  _20
REMARK    7  A    between atoms: _19  and  _22
REMARK    8  A    between atoms: _22  and  _23
REMARK    9  A    between atoms: _28  and  _29
REMARK   10  A    between atoms: _31  and  _33
REMARK   11  A    between atoms: _33  and  _34
REMARK   12  A    between atoms: _33  and  _36
REMARK   13  A    between atoms: _36  and  _37
REMARK   14  A    between atoms: _40  and  _41
REMARK   15  A    between atoms: _46  and  _48
REMARK   16  A    between atoms: _48  and  _49
REMARK   17  A    between atoms: _48  and  _51
REMARK   18  A    between atoms: _51  and  _52
REMARK   19  A    between atoms: _57  and  _59
REMARK   20  A    between atoms: _59  and  _60
REMARK   21  A    between atoms: _63  and  _65
REMARK   22  A    between atoms: _65  and  _66
REMARK   23  A    between atoms: _65  and  _68
REMARK   24  A    between atoms: _68  and  _69
REMARK   25  A    between atoms: _74  and  _76
REMARK   26  A    between atoms: _76  and  _77
REMARK   27  A    between atoms: _76  and  _79
REMARK   28  A    between atoms: _79  and  _80
REMARK   29  A    between atoms: _83  and  _85
REMARK   30  A    between atoms: _85  and  _86
REMARK   31  A    between atoms: _85  and  _88
REMARK   32  A    between atoms: _88  and  _89
REMARK   33  A    between atoms: _89  and  _90
REMARK   34  A    between atoms: _95  and  _97
REMARK   35  A    between atoms: _97  and  _98
REMARK   36  A    between atoms: _97  and  _100
REMARK   37  A    between atoms: _100  and  _101
REMARK   38  A    between atoms: _107  and  _109
REMARK   39  A    between atoms: _120  and  _123
REMARK   40  A    between atoms: _123  and  _124
REMARK   41  A    between atoms: _132  and  _133
REMARK   42  A    between atoms: _141  and  _143
REMARK   43  A    between atoms: _143  and  _144
REMARK   44  A    between atoms: _143  and  _146
REMARK   45  A    between atoms: _146  and  _147
REMARK   46  A    between atoms: _147  and  _148
REMARK   47  A    between atoms: _151  and  _153
REMARK   48  A    between atoms: _153  and  _154
REMARK   49  A    between atoms: _153  and  _156
REMARK   50  A    between atoms: _156  and  _157
REMARK   51  A    between atoms: _162  and  _164
REMARK   52  A    between atoms: _164  and  _165
REMARK   53  A    between atoms: _164  and  _167
REMARK   54  A    between atoms: _167  and  _168
REMARK   55  A    between atoms: _168  and  _169
REMARK   56  A    between atoms: _172  and  _174
REMARK   57  A    between atoms: _174  and  _175
REMARK   58  A    between atoms: _174  and  _177
REMARK   59  A    between atoms: _177  and  _178
REMARK   60  A    between atoms: _181  and  _183
REMARK   61  A    between atoms: _183  and  _184
REMARK   62  A    between atoms: _183  and  _186
REMARK   63  A    between atoms: _186  and  _187
REMARK   64  A    between atoms: _188  and  ZN_408
REMARK   65  A    between atoms: _192  and  _194
REMARK   66  A    between atoms: _194  and  _195
REMARK   67  A    between atoms: _194  and  _197
REMARK   68  A    between atoms: _197  and  _198
REMARK   69  A    between atoms: _201  and  _203
REMARK   70  A    between atoms: _203  and  _204
REMARK   71  A    between atoms: _203  and  _206
REMARK   72  A    between atoms: _209  and  _211
REMARK   73  A    between atoms: _211  and  _212
REMARK   74  A    between atoms: _211  and  _214
REMARK   75  A    between atoms: _214  and  _215
REMARK   76  A    between atoms: _220  and  _222
REMARK   77  A    between atoms: _222  and  _223
REMARK   78  A    between atoms: _222  and  _225
REMARK   79  A    between atoms: _225  and  _226
REMARK   80  A    between atoms: _232  and  _234
REMARK   81  A    between atoms: _234  and  _235
REMARK   82  A    between atoms: _234  and  _237
REMARK   83  A    between atoms: _240  and  _242
REMARK   84  A    between atoms: _242  and  _243
REMARK   85  A    between atoms: _242  and  _245
REMARK   86  A    between atoms: _245  and  _246
REMARK   87  A    between atoms: _249  and  _251
REMARK   88  A    between atoms: _251  and  _252
REMARK   89  A    between atoms: _255  and  _257
REMARK   90  A    between atoms: _257  and  _258
REMARK   91  A    between atoms: _257  and  _260
REMARK   92  A    between atoms: _263  and  _265
REMARK   93  A    between atoms: _265  and  _266
REMARK   94  A    between atoms: _265  and  _268
REMARK   95  A    between atoms: _268  and  _269
REMARK   96  A    between atoms: _272  and  _274
REMARK   97  A    between atoms: _274  and  _275
REMARK   98  A    between atoms: _277  and  _279
REMARK   99  A    between atoms: _279  and  _280
REMARK  100  A    between atoms: _282  and  _284
REMARK  101  A    between atoms: _284  and  _285
REMARK  102  A    between atoms: _284  and  _287
REMARK  103  A    between atoms: _287  and  _288
REMARK  104  A    between atoms: _290  and  _292
REMARK  105  A    between atoms: _292  and  _293
REMARK  106  A    between atoms: _292  and  _295
REMARK  107  A    between atoms: _295  and  _296
REMARK  108  A    between atoms: _299  and  _301
REMARK  109  A    between atoms: _301  and  _302
REMARK  110  A    between atoms: _301  and  _304
REMARK  111  A    between atoms: _304  and  _305
REMARK  112  A    between atoms: _308  and  _310
REMARK  113  A    between atoms: _310  and  _311
REMARK  114  A    between atoms: _310  and  _313
REMARK  115  A    between atoms: _313  and  _314
REMARK  116  A    between atoms: _318  and  _319
REMARK  117  A    between atoms: _325  and  _326
REMARK  118  A    between atoms: _331  and  _333
REMARK  119  A    between atoms: _333  and  _334
REMARK  120  A    between atoms: _333  and  _336
REMARK  121  A    between atoms: _336  and  _337
REMARK  122  A    between atoms: _340  and  _342
REMARK  123  A    between atoms: _342  and  _343
REMARK  124  A    between atoms: _342  and  _345
REMARK  125  A    between atoms: _345  and  _346
REMARK  126  A    between atoms: _349  and  _351
REMARK  127  A    between atoms: _351  and  _352
REMARK  128  A    between atoms: _351  and  _354
REMARK  129  A    between atoms: _356  and  _358
REMARK  130  A    between atoms: _358  and  _359
REMARK  131  A    between atoms: _358  and  _361
REMARK  132  A    between atoms: _364  and  _366
REMARK  133  A    between atoms: _366  and  _367
REMARK  134  A    between atoms: _366  and  _369
REMARK  135  A    between atoms: _369  and  _370
REMARK  136  A    between atoms: _380  and  _382
REMARK  137  A    between atoms: _382  and  _383
REMARK  138  A    between atoms: _382  and  _385
REMARK  139  A    between atoms: _385  and  _386
REMARK  140  A    between atoms: _391  and  _393
REMARK  141  A    between atoms: _393  and  _394
REMARK  142  A    between atoms: _393  and  _396
REMARK  143  A    between atoms: _396  and  _397
REMARK  144  A    between atoms: _397  and  _398
REMARK  145  A    between atoms: _398  and  _399
REMARK                            x       y       z     vdW  Elec       q    Type
REMARK                         _______ _______ _______ _____ _____    ______ ____
ROOT
ATOM      1  CG  TRP A   1      -8.794   0.197  24.056  0.00  0.00    -0.002 A 
ATOM      2  CD1 TRP A   1      -7.576   0.780  24.237  0.00  0.00    +0.068 A 
ATOM      3  NE1 TRP A   1      -6.861   0.749  23.061  0.00  0.00    -0.352 N 
ATOM      4  HE1 TRP A   1      -5.901   1.125  22.926  0.00  0.00    +0.166 HD
ATOM      5  CE2 TRP A   1      -7.623   0.141  22.096  0.00  0.00    +0.056 A 
ATOM      6  CZ2 TRP A   1      -7.335  -0.128  20.759  0.00  0.00    +0.017 A 
ATOM      7  CH2 TRP A   1      -8.304  -0.765  20.020  0.00  0.00    +0.001 A 
ATOM      8  CZ3 TRP A   1      -9.544  -1.121  20.582  0.00  0.00    +0.000 A 
ATOM      9  CE3 TRP A   1      -9.826  -0.860  21.912  0.00  0.00    +0.001 A 
ATOM     10  CD2 TRP A   1      -8.853  -0.214  22.691  0.00  0.00    +0.013 A 
ENDROOT
BRANCH   1  11
ATOM     11  CB  TRP A   1      -9.880   0.065  25.062  0.00  0.00    +0.053 C 
BRANCH  11  12
ATOM     12  CA  TRP A   1     -10.893   1.211  24.895  0.00  0.00    +0.137 C 
BRANCH  12  13
ATOM     13  N   TRP A   1     -10.448   2.408  25.604  0.00  0.00    -0.239 NA
ATOM     14  H   TRP A   1      -9.841   2.315  26.443  0.00  0.00    +0.142 HD
ENDBRANCH  12  13
BRANCH  12  15
ATOM     15  C   TRP A   1     -12.255   0.783  25.392  0.00  0.00    +0.224 C 
ATOM     16  O   TRP A   1     -12.481   0.709  26.594  0.00  0.00    -0.287 OA
ENDBRANCH  12  15
ENDBRANCH  11  12
ENDBRANCH   1  11
TORSDOF 4
REMARK  Name = ../refined-set-2016/4ruz/4ruz_pocket.pdb
REMARK  145 active torsions:
REMARK  status: ('A' for Active; 'I' for Inactive)
REMARK    1  A    between atoms: _1  and  _3
REMARK    2  A    between atoms: _3  and  _4
REMARK    3  A    between atoms: _3  and  _6
REMARK    4  A    between atoms: _6  and  _7
REMARK    5  A    between atoms: _17  and  _19
REMARK    6  A    between atoms: _19  and  _20
REMARK    7  A    between atoms: _19  and  _22
REMARK    8  A    between atoms: _22  and  _23
REMARK    9  A    between atoms: _28  and  _29
REMARK   10  A    between atoms: _31  and  _33
REMARK   11  A    between atoms: _33  and  _34
REMARK   12  A    between atoms: _33  and  _36
REMARK   13  A    between atoms: _36  and  _37
REMARK   14  A    between atoms: _40  and  _41
REMARK   15  A    between atoms: _46  and  _48
REMARK   16  A    between atoms: _48  and  _49
REMARK   17  A    between atoms: _48  and  _51
REMARK   18  A    between atoms: _51  and  _52
REMARK   19  A    between atoms: _57  and  _59
REMARK   20  A    between atoms: _59  and  _60
REMARK   21  A    between atoms: _63  and  _65
REMARK   22  A    between atoms: _65  and  _66
REMARK   23  A    between atoms: _65  and  _68
REMARK   24  A    between atoms: _68  and  _69
REMARK   25  A    between atoms: _74  and  _76
REMARK   26  A    between atoms: _76  and  _77
REMARK   27  A    between atoms: _76  and  _79
REMARK   28  A    between atoms: _79  and  _80
REMARK   29  A    between atoms: _83  and  _85
REMARK   30  A    between atoms: _85  and  _86
REMARK   31  A    between atoms: _85  and  _88
REMARK   32  A    between atoms: _88  and  _89
REMARK   33  A    between atoms: _89  and  _90
REMARK   34  A    between atoms: _95  and  _97
REMARK   35  A    between atoms: _97  and  _98
REMARK   36  A    between atoms: _97  and  _100
REMARK   37  A    between atoms: _100  and  _101
REMARK   38  A    between atoms: _107  and  _109
REMARK   39  A    between atoms: _120  and  _123
REMARK   40  A    between atoms: _123  and  _124
REMARK   41  A    between atoms: _132  and  _133
REMARK   42  A    between atoms: _141  and  _143
REMARK   43  A    between atoms: _143  and  _144
REMARK   44  A    between atoms: _143  and  _146
REMARK   45  A    between atoms: _146  and  _147
REMARK   46  A    between atoms: _147  and  _148
REMARK   47  A    between atoms: _151  and  _153
REMARK   48  A    between atoms: _153  and  _154
REMARK   49  A    between atoms: _153  and  _156
REMARK   50  A    between atoms: _156  and  _157
REMARK   51  A    between atoms: _162  and  _164
REMARK   52  A    between atoms: _164  and  _165
REMARK   53  A    between atoms: _164  and  _167
REMARK   54  A    between atoms: _167  and  _168
REMARK   55  A    between atoms: _168  and  _169
REMARK   56  A    between atoms: _172  and  _174
REMARK   57  A    between atoms: _174  and  _175
REMARK   58  A    between atoms: _174  and  _177
REMARK   59  A    between atoms: _177  and  _178
REMARK   60  A    between atoms: _181  and  _183
REMARK   61  A    between atoms: _183  and  _184
REMARK   62  A    between atoms: _183  and  _186
REMARK   63  A    between atoms: _186  and  _187
REMARK   64  A    between atoms: _188  and  ZN_408
REMARK   65  A    between atoms: _192  and  _194
REMARK   66  A    between atoms: _194  and  _195
REMARK   67  A    between atoms: _194  and  _197
REMARK   68  A    between atoms: _197  and  _198
REMARK   69  A    between atoms: _201  and  _203
REMARK   70  A    between atoms: _203  and  _204
REMARK   71  A    between atoms: _203  and  _206
REMARK   72  A    between atoms: _209  and  _211
REMARK   73  A    between atoms: _211  and  _212
REMARK   74  A    between atoms: _211  and  _214
REMARK   75  A    between atoms: _214  and  _215
REMARK   76  A    between atoms: _220  and  _222
REMARK   77  A    between atoms: _222  and  _223
REMARK   78  A    between atoms: _222  and  _225
REMARK   79  A    between atoms: _225  and  _226
REMARK   80  A    between atoms: _232  and  _234
REMARK   81  A    between atoms: _234  and  _235
REMARK   82  A    between atoms: _234  and  _237
REMARK   83  A    between atoms: _240  and  _242
REMARK   84  A    between atoms: _242  and  _243
REMARK   85  A    between atoms: _242  and  _245
REMARK   86  A    between atoms: _245  and  _246
REMARK   87  A    between atoms: _249  and  _251
REMARK   88  A    between atoms: _251  and  _252
REMARK   89  A    between atoms: _255  and  _257
REMARK   90  A    between atoms: _257  and  _258
REMARK   91  A    between atoms: _257  and  _260
REMARK   92  A    between atoms: _263  and  _265
REMARK   93  A    between atoms: _265  and  _266
REMARK   94  A    between atoms: _265  and  _268
REMARK   95  A    between atoms: _268  and  _269
REMARK   96  A    between atoms: _272  and  _274
REMARK   97  A    between atoms: _274  and  _275
REMARK   98  A    between atoms: _277  and  _279
REMARK   99  A    between atoms: _279  and  _280
REMARK  100  A    between atoms: _282  and  _284
REMARK  101  A    between atoms: _284  and  _285
REMARK  102  A    between atoms: _284  and  _287
REMARK  103  A    between atoms: _287  and  _288
REMARK  104  A    between atoms: _290  and  _292
REMARK  105  A    between atoms: _292  and  _293
REMARK  106  A    between atoms: _292  and  _295
REMARK  107  A    between atoms: _295  and  _296
REMARK  108  A    between atoms: _299  and  _301
REMARK  109  A    between atoms: _301  and  _302
REMARK  110  A    between atoms: _301  and  _304
REMARK  111  A    between atoms: _304  and  _305
REMARK  112  A    between atoms: _308  and  _310
REMARK  113  A    between atoms: _310  and  _311
REMARK  114  A    between atoms: _310  and  _313
REMARK  115  A    between atoms: _313  and  _314
REMARK  116  A    between atoms: _318  and  _319
REMARK  117  A    between atoms: _325  and  _326
REMARK  118  A    between atoms: _331  and  _333
REMARK  119  A    between atoms: _333  and  _334
REMARK  120  A    between atoms: _333  and  _336
REMARK  121  A    between atoms: _336  and  _337
REMARK  122  A    between atoms: _340  and  _342
REMARK  123  A    between atoms: _342  and  _343
REMARK  124  A    between atoms: _342  and  _345
REMARK  125  A    between atoms: _345  and  _346
REMARK  126  A    between atoms: _349  and  _351
REMARK  127  A    between atoms: _351  and  _352
REMARK  128  A    between atoms: _351  and  _354
REMARK  129  A    between atoms: _356  and  _358
REMARK  130  A    between atoms: _358  and  _359
REMARK  131  A    between atoms: _358  and  _361
REMARK  132  A    between atoms: _364  and  _366
REMARK  133  A    between atoms: _366  and  _367
REMARK  134  A    between atoms: _366  and  _369
REMARK  135  A    between atoms: _369  and  _370
REMARK  136  A    between atoms: _380  and  _382
REMARK  137  A    between atoms: _382  and  _383
REMARK  138  A    between atoms: _382  and  _385
REMARK  139  A    between atoms: _385  and  _386
REMARK  140  A    between atoms: _391  and  _393
REMARK  141  A    between atoms: _393  and  _394
REMARK  142  A    between atoms: _393  and  _396
REMARK  143  A    between atoms: _396  and  _397
REMARK  144  A    between atoms: _397  and  _398
REMARK  145  A    between atoms: _398  and  _399
REMARK                            x       y       z     vdW  Elec       q    Type
REMARK                         _______ _______ _______ _____ _____    ______ ____
ROOT
ATOM      1  CB  ASN A   1      -2.021  -7.076  10.343  0.00  0.00    +0.110 C 
ENDROOT
BRANCH   1   2
ATOM      2  CG  ASN A   1      -3.531  -7.222  10.181  0.00  0.00    +0.221 C 
ATOM      3  OD1 ASN A   1      -4.138  -8.147  10.718  0.00  0.00    -0.275 OA
ATOM      4  ND2 ASN A   1      -4.141  -6.301   9.427  0.00  0.00    -0.329 N 
ATOM      5 HD21 ASN A   1      -5.169  -6.350   9.276  0.00  0.00    +0.145 HD
ATOM      6 HD22 ASN A   1      -3.588  -5.536   8.992  0.00  0.00    +0.145 HD
ENDBRANCH   1   2
BRANCH   1   7
ATOM      7  CA  ASN A   1      -1.454  -7.952  11.468  0.00  0.00    +0.142 C 
BRANCH   7   8
ATOM      8  N   ASN A   1      -1.753  -9.362  11.240  0.00  0.00    -0.239 NA
ATOM      9  H   ASN A   1      -2.666  -9.620  10.813  0.00  0.00    +0.142 HD
ENDBRANCH   7   8
BRANCH   7  10
ATOM     10  C   ASN A   1      -2.007  -7.518  12.821  0.00  0.00    +0.225 C 
ATOM     11  O   ASN A   1      -2.657  -6.475  12.938  0.00  0.00    -0.287 OA
ENDBRANCH   7  10
ENDBRANCH   1   7
TORSDOF 4
REMARK  Name = ../refined-set-2016/4ruz/4ruz_pocket.pdb
REMARK  145 active torsions:
REMARK  status: ('A' for Active; 'I' for Inactive)
REMARK    1  A    between atoms: _1  and  _3
REMARK    2  A    between atoms: _3  and  _4
REMARK    3  A    between atoms: _3  and  _6
REMARK    4  A    between atoms: _6  and  _7
REMARK    5  A    between atoms: _17  and  _19
REMARK    6  A    between atoms: _19  and  _20
REMARK    7  A    between atoms: _19  and  _22
REMARK    8  A    between atoms: _22  and  _23
REMARK    9  A    between atoms: _28  and  _29
REMARK   10  A    between atoms: _31  and  _33
REMARK   11  A    between atoms: _33  and  _34
REMARK   12  A    between atoms: _33  and  _36
REMARK   13  A    between atoms: _36  and  _37
REMARK   14  A    between atoms: _40  and  _41
REMARK   15  A    between atoms: _46  and  _48
REMARK   16  A    between atoms: _48  and  _49
REMARK   17  A    between atoms: _48  and  _51
REMARK   18  A    between atoms: _51  and  _52
REMARK   19  A    between atoms: _57  and  _59
REMARK   20  A    between atoms: _59  and  _60
REMARK   21  A    between atoms: _63  and  _65
REMARK   22  A    between atoms: _65  and  _66
REMARK   23  A    between atoms: _65  and  _68
REMARK   24  A    between atoms: _68  and  _69
REMARK   25  A    between atoms: _74  and  _76
REMARK   26  A    between atoms: _76  and  _77
REMARK   27  A    between atoms: _76  and  _79
REMARK   28  A    between atoms: _79  and  _80
REMARK   29  A    between atoms: _83  and  _85
REMARK   30  A    between atoms: _85  and  _86
REMARK   31  A    between atoms: _85  and  _88
REMARK   32  A    between atoms: _88  and  _89
REMARK   33  A    between atoms: _89  and  _90
REMARK   34  A    between atoms: _95  and  _97
REMARK   35  A    between atoms: _97  and  _98
REMARK   36  A    between atoms: _97  and  _100
REMARK   37  A    between atoms: _100  and  _101
REMARK   38  A    between atoms: _107  and  _109
REMARK   39  A    between atoms: _120  and  _123
REMARK   40  A    between atoms: _123  and  _124
REMARK   41  A    between atoms: _132  and  _133
REMARK   42  A    between atoms: _141  and  _143
REMARK   43  A    between atoms: _143  and  _144
REMARK   44  A    between atoms: _143  and  _146
REMARK   45  A    between atoms: _146  and  _147
REMARK   46  A    between atoms: _147  and  _148
REMARK   47  A    between atoms: _151  and  _153
REMARK   48  A    between atoms: _153  and  _154
REMARK   49  A    between atoms: _153  and  _156
REMARK   50  A    between atoms: _156  and  _157
REMARK   51  A    between atoms: _162  and  _164
REMARK   52  A    between atoms: _164  and  _165
REMARK   53  A    between atoms: _164  and  _167
REMARK   54  A    between atoms: _167  and  _168
REMARK   55  A    between atoms: _168  and  _169
REMARK   56  A    between atoms: _172  and  _174
REMARK   57  A    between atoms: _174  and  _175
REMARK   58  A    between atoms: _174  and  _177
REMARK   59  A    between atoms: _177  and  _178
REMARK   60  A    between atoms: _181  and  _183
REMARK   61  A    between atoms: _183  and  _184
REMARK   62  A    between atoms: _183  and  _186
REMARK   63  A    between atoms: _186  and  _187
REMARK   64  A    between atoms: _188  and  ZN_408
REMARK   65  A    between atoms: _192  and  _194
REMARK   66  A    between atoms: _194  and  _195
REMARK   67  A    between atoms: _194  and  _197
REMARK   68  A    between atoms: _197  and  _198
REMARK   69  A    between atoms: _201  and  _203
REMARK   70  A    between atoms: _203  and  _204
REMARK   71  A    between atoms: _203  and  _206
REMARK   72  A    between atoms: _209  and  _211
REMARK   73  A    between atoms: _211  and  _212
REMARK   74  A    between atoms: _211  and  _214
REMARK   75  A    between atoms: _214  and  _215
REMARK   76  A    between atoms: _220  and  _222
REMARK   77  A    between atoms: _222  and  _223
REMARK   78  A    between atoms: _222  and  _225
REMARK   79  A    between atoms: _225  and  _226
REMARK   80  A    between atoms: _232  and  _234
REMARK   81  A    between atoms: _234  and  _235
REMARK   82  A    between atoms: _234  and  _237
REMARK   83  A    between atoms: _240  and  _242
REMARK   84  A    between atoms: _242  and  _243
REMARK   85  A    between atoms: _242  and  _245
REMARK   86  A    between atoms: _245  and  _246
REMARK   87  A    between atoms: _249  and  _251
REMARK   88  A    between atoms: _251  and  _252
REMARK   89  A    between atoms: _255  and  _257
REMARK   90  A    between atoms: _257  and  _258
REMARK   91  A    between atoms: _257  and  _260
REMARK   92  A    between atoms: _263  and  _265
REMARK   93  A    between atoms: _265  and  _266
REMARK   94  A    between atoms: _265  and  _268
REMARK   95  A    between atoms: _268  and  _269
REMARK   96  A    between atoms: _272  and  _274
REMARK   97  A    between atoms: _274  and  _275
REMARK   98  A    between atoms: _277  and  _279
REMARK   99  A    between atoms: _279  and  _280
REMARK  100  A    between atoms: _282  and  _284
REMARK  101  A    between atoms: _284  and  _285
REMARK  102  A    between atoms: _284  and  _287
REMARK  103  A    between atoms: _287  and  _288
REMARK  104  A    between atoms: _290  and  _292
REMARK  105  A    between atoms: _292  and  _293
REMARK  106  A    between atoms: _292  and  _295
REMARK  107  A    between atoms: _295  and  _296
REMARK  108  A    between atoms: _299  and  _301
REMARK  109  A    between atoms: _301  and  _302
REMARK  110  A    between atoms: _301  and  _304
REMARK  111  A    between atoms: _304  and  _305
REMARK  112  A    between atoms: _308  and  _310
REMARK  113  A    between atoms: _310  and  _311
REMARK  114  A    between atoms: _310  and  _313
REMARK  115  A    between atoms: _313  and  _314
REMARK  116  A    between atoms: _318  and  _319
REMARK  117  A    between atoms: _325  and  _326
REMARK  118  A    between atoms: _331  and  _333
REMARK  119  A    between atoms: _333  and  _334
REMARK  120  A    between atoms: _333  and  _336
REMARK  121  A    between atoms: _336  and  _337
REMARK  122  A    between atoms: _340  and  _342
REMARK  123  A    between atoms: _342  and  _343
REMARK  124  A    between atoms: _342  and  _345
REMARK  125  A    between atoms: _345  and  _346
REMARK  126  A    between atoms: _349  and  _351
REMARK  127  A    between atoms: _351  and  _352
REMARK  128  A    between atoms: _351  and  _354
REMARK  129  A    between atoms: _356  and  _358
REMARK  130  A    between atoms: _358  and  _359
REMARK  131  A    between atoms: _358  and  _361
REMARK  132  A    between atoms: _364  and  _366
REMARK  133  A    between atoms: _366  and  _367
REMARK  134  A    between atoms: _366  and  _369
REMARK  135  A    between atoms: _369  and  _370
REMARK  136  A    between atoms: _380  and  _382
REMARK  137  A    between atoms: _382  and  _383
REMARK  138  A    between atoms: _382  and  _385
REMARK  139  A    between atoms: _385  and  _386
REMARK  140  A    between atoms: _391  and  _393
REMARK  141  A    between atoms: _393  and  _394
REMARK  142  A    between atoms: _393  and  _396
REMARK  143  A    between atoms: _396  and  _397
REMARK  144  A    between atoms: _397  and  _398
REMARK  145  A    between atoms: _398  and  _399
REMARK                            x       y       z     vdW  Elec       q    Type
REMARK                         _______ _______ _______ _____ _____    ______ ____
ROOT
ATOM      1  NE  ARG A   1       2.226  -3.623  21.052  0.00  0.00    -0.265 N 
ATOM      2  CZ  ARG A   1       2.419  -2.643  21.930  0.00  0.00    +0.342 C 
ATOM      3  NH2 ARG A   1       3.640  -2.446  22.434  0.00  0.00    -0.292 N 
ATOM      4 HH21 ARG A   1       3.802  -1.682  23.121  0.00  0.00    +0.255 HD
ATOM      5 HH22 ARG A   1       4.429  -3.056  22.139  0.00  0.00    +0.255 HD
ATOM      6  NH1 ARG A   1       1.413  -1.855  22.300  0.00  0.00    -0.292 N 
ATOM      7 HH11 ARG A   1       1.576  -1.092  22.987  0.00  0.00    +0.255 HD
ATOM      8 HH12 ARG A   1       0.464  -2.002  21.902  0.00  0.00    +0.255 HD
ATOM      9  HE  ARG A   1       3.047  -4.212  20.806  0.00  0.00    +0.259 HD
ENDROOT
BRANCH   1  10
ATOM     10  CD  ARG A   1       0.947  -3.941  20.401  0.00  0.00    +0.174 C 
BRANCH  10  11
ATOM     11  CG  ARG A   1       1.049  -5.309  19.733  0.00  0.00    +0.045 C 
BRANCH  11  12
ATOM     12  CB  ARG A   1      -0.080  -5.548  18.729  0.00  0.00    +0.029 C 
BRANCH  12  13
ATOM     13  CA  ARG A   1      -0.182  -6.993  18.229  0.00  0.00    +0.133 C 
BRANCH  13  14
ATOM     14  N   ARG A   1      -1.109  -7.074  17.103  0.00  0.00    -0.239 NA
ATOM     15  H   ARG A   1      -1.896  -6.396  17.055  0.00  0.00    +0.142 HD
ENDBRANCH  13  14
BRANCH  13  16
ATOM     16  C   ARG A   1      -0.674  -7.900  19.348  0.00  0.00    +0.224 C 
ATOM     17  O   ARG A   1      -1.863  -7.911  19.651  0.00  0.00    -0.287 OA
ENDBRANCH  13  16
ENDBRANCH  12  13
ENDBRANCH  11  12
ENDBRANCH  10  11
ENDBRANCH   1  10
TORSDOF 6
REMARK  Name = ../refined-set-2016/4ruz/4ruz_pocket.pdb
REMARK  145 active torsions:
REMARK  status: ('A' for Active; 'I' for Inactive)
REMARK    1  A    between atoms: _1  and  _3
REMARK    2  A    between atoms: _3  and  _4
REMARK    3  A    between atoms: _3  and  _6
REMARK    4  A    between atoms: _6  and  _7
REMARK    5  A    between atoms: _17  and  _19
REMARK    6  A    between atoms: _19  and  _20
REMARK    7  A    between atoms: _19  and  _22
REMARK    8  A    between atoms: _22  and  _23
REMARK    9  A    between atoms: _28  and  _29
REMARK   10  A    between atoms: _31  and  _33
REMARK   11  A    between atoms: _33  and  _34
REMARK   12  A    between atoms: _33  and  _36
REMARK   13  A    between atoms: _36  and  _37
REMARK   14  A    between atoms: _40  and  _41
REMARK   15  A    between atoms: _46  and  _48
REMARK   16  A    between atoms: _48  and  _49
REMARK   17  A    between atoms: _48  and  _51
REMARK   18  A    between atoms: _51  and  _52
REMARK   19  A    between atoms: _57  and  _59
REMARK   20  A    between atoms: _59  and  _60
REMARK   21  A    between atoms: _63  and  _65
REMARK   22  A    between atoms: _65  and  _66
REMARK   23  A    between atoms: _65  and  _68
REMARK   24  A    between atoms: _68  and  _69
REMARK   25  A    between atoms: _74  and  _76
REMARK   26  A    between atoms: _76  and  _77
REMARK   27  A    between atoms: _76  and  _79
REMARK   28  A    between atoms: _79  and  _80
REMARK   29  A    between atoms: _83  and  _85
REMARK   30  A    between atoms: _85  and  _86
REMARK   31  A    between atoms: _85  and  _88
REMARK   32  A    between atoms: _88  and  _89
REMARK   33  A    between atoms: _89  and  _90
REMARK   34  A    between atoms: _95  and  _97
REMARK   35  A    between atoms: _97  and  _98
REMARK   36  A    between atoms: _97  and  _100
REMARK   37  A    between atoms: _100  and  _101
REMARK   38  A    between atoms: _107  and  _109
REMARK   39  A    between atoms: _120  and  _123
REMARK   40  A    between atoms: _123  and  _124
REMARK   41  A    between atoms: _132  and  _133
REMARK   42  A    between atoms: _141  and  _143
REMARK   43  A    between atoms: _143  and  _144
REMARK   44  A    between atoms: _143  and  _146
REMARK   45  A    between atoms: _146  and  _147
REMARK   46  A    between atoms: _147  and  _148
REMARK   47  A    between atoms: _151  and  _153
REMARK   48  A    between atoms: _153  and  _154
REMARK   49  A    between atoms: _153  and  _156
REMARK   50  A    between atoms: _156  and  _157
REMARK   51  A    between atoms: _162  and  _164
REMARK   52  A    between atoms: _164  and  _165
REMARK   53  A    between atoms: _164  and  _167
REMARK   54  A    between atoms: _167  and  _168
REMARK   55  A    between atoms: _168  and  _169
REMARK   56  A    between atoms: _172  and  _174
REMARK   57  A    between atoms: _174  and  _175
REMARK   58  A    between atoms: _174  and  _177
REMARK   59  A    between atoms: _177  and  _178
REMARK   60  A    between atoms: _181  and  _183
REMARK   61  A    between atoms: _183  and  _184
REMARK   62  A    between atoms: _183  and  _186
REMARK   63  A    between atoms: _186  and  _187
REMARK   64  A    between atoms: _188  and  ZN_408
REMARK   65  A    between atoms: _192  and  _194
REMARK   66  A    between atoms: _194  and  _195
REMARK   67  A    between atoms: _194  and  _197
REMARK   68  A    between atoms: _197  and  _198
REMARK   69  A    between atoms: _201  and  _203
REMARK   70  A    between atoms: _203  and  _204
REMARK   71  A    between atoms: _203  and  _206
REMARK   72  A    between atoms: _209  and  _211
REMARK   73  A    between atoms: _211  and  _212
REMARK   74  A    between atoms: _211  and  _214
REMARK   75  A    between atoms: _214  and  _215
REMARK   76  A    between atoms: _220  and  _222
REMARK   77  A    between atoms: _222  and  _223
REMARK   78  A    between atoms: _222  and  _225
REMARK   79  A    between atoms: _225  and  _226
REMARK   80  A    between atoms: _232  and  _234
REMARK   81  A    between atoms: _234  and  _235
REMARK   82  A    between atoms: _234  and  _237
REMARK   83  A    between atoms: _240  and  _242
REMARK   84  A    between atoms: _242  and  _243
REMARK   85  A    between atoms: _242  and  _245
REMARK   86  A    between atoms: _245  and  _246
REMARK   87  A    between atoms: _249  and  _251
REMARK   88  A    between atoms: _251  and  _252
REMARK   89  A    between atoms: _255  and  _257
REMARK   90  A    between atoms: _257  and  _258
REMARK   91  A    between atoms: _257  and  _260
REMARK   92  A    between atoms: _263  and  _265
REMARK   93  A    between atoms: _265  and  _266
REMARK   94  A    between atoms: _265  and  _268
REMARK   95  A    between atoms: _268  and  _269
REMARK   96  A    between atoms: _272  and  _274
REMARK   97  A    between atoms: _274  and  _275
REMARK   98  A    between atoms: _277  and  _279
REMARK   99  A    between atoms: _279  and  _280
REMARK  100  A    between atoms: _282  and  _284
REMARK  101  A    between atoms: _284  and  _285
REMARK  102  A    between atoms: _284  and  _287
REMARK  103  A    between atoms: _287  and  _288
REMARK  104  A    between atoms: _290  and  _292
REMARK  105  A    between atoms: _292  and  _293
REMARK  106  A    between atoms: _292  and  _295
REMARK  107  A    between atoms: _295  and  _296
REMARK  108  A    between atoms: _299  and  _301
REMARK  109  A    between atoms: _301  and  _302
REMARK  110  A    between atoms: _301  and  _304
REMARK  111  A    between atoms: _304  and  _305
REMARK  112  A    between atoms: _308  and  _310
REMARK  113  A    between atoms: _310  and  _311
REMARK  114  A    between atoms: _310  and  _313
REMARK  115  A    between atoms: _313  and  _314
REMARK  116  A    between atoms: _318  and  _319
REMARK  117  A    between atoms: _325  and  _326
REMARK  118  A    between atoms: _331  and  _333
REMARK  119  A    between atoms: _333  and  _334
REMARK  120  A    between atoms: _333  and  _336
REMARK  121  A    between atoms: _336  and  _337
REMARK  122  A    between atoms: _340  and  _342
REMARK  123  A    between atoms: _342  and  _343
REMARK  124  A    between atoms: _342  and  _345
REMARK  125  A    between atoms: _345  and  _346
REMARK  126  A    between atoms: _349  and  _351
REMARK  127  A    between atoms: _351  and  _352
REMARK  128  A    between atoms: _351  and  _354
REMARK  129  A    between atoms: _356  and  _358
REMARK  130  A    between atoms: _358  and  _359
REMARK  131  A    between atoms: _358  and  _361
REMARK  132  A    between atoms: _364  and  _366
REMARK  133  A    between atoms: _366  and  _367
REMARK  134  A    between atoms: _366  and  _369
REMARK  135  A    between atoms: _369  and  _370
REMARK  136  A    between atoms: _380  and  _382
REMARK  137  A    between atoms: _382  and  _383
REMARK  138  A    between atoms: _382  and  _385
REMARK  139  A    between atoms: _385  and  _386
REMARK  140  A    between atoms: _391  and  _393
REMARK  141  A    between atoms: _393  and  _394
REMARK  142  A    between atoms: _393  and  _396
REMARK  143  A    between atoms: _396  and  _397
REMARK  144  A    between atoms: _397  and  _398
REMARK  145  A    between atoms: _398  and  _399
REMARK                            x       y       z     vdW  Elec       q    Type
REMARK                         _______ _______ _______ _____ _____    ______ ____
ROOT
ATOM      1  O   HOH     1      -1.201  -3.924  15.748  0.00  0.00    +0.000 OA
ENDROOT
TORSDOF 0
REMARK  Name = ../refined-set-2016/4ruz/4ruz_pocket.pdb
REMARK  145 active torsions:
REMARK  status: ('A' for Active; 'I' for Inactive)
REMARK    1  A    between atoms: _1  and  _3
REMARK    2  A    between atoms: _3  and  _4
REMARK    3  A    between atoms: _3  and  _6
REMARK    4  A    between atoms: _6  and  _7
REMARK    5  A    between atoms: _17  and  _19
REMARK    6  A    between atoms: _19  and  _20
REMARK    7  A    between atoms: _19  and  _22
REMARK    8  A    between atoms: _22  and  _23
REMARK    9  A    between atoms: _28  and  _29
REMARK   10  A    between atoms: _31  and  _33
REMARK   11  A    between atoms: _33  and  _34
REMARK   12  A    between atoms: _33  and  _36
REMARK   13  A    between atoms: _36  and  _37
REMARK   14  A    between atoms: _40  and  _41
REMARK   15  A    between atoms: _46  and  _48
REMARK   16  A    between atoms: _48  and  _49
REMARK   17  A    between atoms: _48  and  _51
REMARK   18  A    between atoms: _51  and  _52
REMARK   19  A    between atoms: _57  and  _59
REMARK   20  A    between atoms: _59  and  _60
REMARK   21  A    between atoms: _63  and  _65
REMARK   22  A    between atoms: _65  and  _66
REMARK   23  A    between atoms: _65  and  _68
REMARK   24  A    between atoms: _68  and  _69
REMARK   25  A    between atoms: _74  and  _76
REMARK   26  A    between atoms: _76  and  _77
REMARK   27  A    between atoms: _76  and  _79
REMARK   28  A    between atoms: _79  and  _80
REMARK   29  A    between atoms: _83  and  _85
REMARK   30  A    between atoms: _85  and  _86
REMARK   31  A    between atoms: _85  and  _88
REMARK   32  A    between atoms: _88  and  _89
REMARK   33  A    between atoms: _89  and  _90
REMARK   34  A    between atoms: _95  and  _97
REMARK   35  A    between atoms: _97  and  _98
REMARK   36  A    between atoms: _97  and  _100
REMARK   37  A    between atoms: _100  and  _101
REMARK   38  A    between atoms: _107  and  _109
REMARK   39  A    between atoms: _120  and  _123
REMARK   40  A    between atoms: _123  and  _124
REMARK   41  A    between atoms: _132  and  _133
REMARK   42  A    between atoms: _141  and  _143
REMARK   43  A    between atoms: _143  and  _144
REMARK   44  A    between atoms: _143  and  _146
REMARK   45  A    between atoms: _146  and  _147
REMARK   46  A    between atoms: _147  and  _148
REMARK   47  A    between atoms: _151  and  _153
REMARK   48  A    between atoms: _153  and  _154
REMARK   49  A    between atoms: _153  and  _156
REMARK   50  A    between atoms: _156  and  _157
REMARK   51  A    between atoms: _162  and  _164
REMARK   52  A    between atoms: _164  and  _165
REMARK   53  A    between atoms: _164  and  _167
REMARK   54  A    between atoms: _167  and  _168
REMARK   55  A    between atoms: _168  and  _169
REMARK   56  A    between atoms: _172  and  _174
REMARK   57  A    between atoms: _174  and  _175
REMARK   58  A    between atoms: _174  and  _177
REMARK   59  A    between atoms: _177  and  _178
REMARK   60  A    between atoms: _181  and  _183
REMARK   61  A    between atoms: _183  and  _184
REMARK   62  A    between atoms: _183  and  _186
REMARK   63  A    between atoms: _186  and  _187
REMARK   64  A    between atoms: _188  and  ZN_408
REMARK   65  A    between atoms: _192  and  _194
REMARK   66  A    between atoms: _194  and  _195
REMARK   67  A    between atoms: _194  and  _197
REMARK   68  A    between atoms: _197  and  _198
REMARK   69  A    between atoms: _201  and  _203
REMARK   70  A    between atoms: _203  and  _204
REMARK   71  A    between atoms: _203  and  _206
REMARK   72  A    between atoms: _209  and  _211
REMARK   73  A    between atoms: _211  and  _212
REMARK   74  A    between atoms: _211  and  _214
REMARK   75  A    between atoms: _214  and  _215
REMARK   76  A    between atoms: _220  and  _222
REMARK   77  A    between atoms: _222  and  _223
REMARK   78  A    between atoms: _222  and  _225
REMARK   79  A    between atoms: _225  and  _226
REMARK   80  A    between atoms: _232  and  _234
REMARK   81  A    between atoms: _234  and  _235
REMARK   82  A    between atoms: _234  and  _237
REMARK   83  A    between atoms: _240  and  _242
REMARK   84  A    between atoms: _242  and  _243
REMARK   85  A    between atoms: _242  and  _245
REMARK   86  A    between atoms: _245  and  _246
REMARK   87  A    between atoms: _249  and  _251
REMARK   88  A    between atoms: _251  and  _252
REMARK   89  A    between atoms: _255  and  _257
REMARK   90  A    between atoms: _257  and  _258
REMARK   91  A    between atoms: _257  and  _260
REMARK   92  A    between atoms: _263  and  _265
REMARK   93  A    between atoms: _265  and  _266
REMARK   94  A    between atoms: _265  and  _268
REMARK   95  A    between atoms: _268  and  _269
REMARK   96  A    between atoms: _272  and  _274
REMARK   97  A    between atoms: _274  and  _275
REMARK   98  A    between atoms: _277  and  _279
REMARK   99  A    between atoms: _279  and  _280
REMARK  100  A    between atoms: _282  and  _284
REMARK  101  A    between atoms: _284  and  _285
REMARK  102  A    between atoms: _284  and  _287
REMARK  103  A    between atoms: _287  and  _288
REMARK  104  A    between atoms: _290  and  _292
REMARK  105  A    between atoms: _292  and  _293
REMARK  106  A    between atoms: _292  and  _295
REMARK  107  A    between atoms: _295  and  _296
REMARK  108  A    between atoms: _299  and  _301
REMARK  109  A    between atoms: _301  and  _302
REMARK  110  A    between atoms: _301  and  _304
REMARK  111  A    between atoms: _304  and  _305
REMARK  112  A    between atoms: _308  and  _310
REMARK  113  A    between atoms: _310  and  _311
REMARK  114  A    between atoms: _310  and  _313
REMARK  115  A    between atoms: _313  and  _314
REMARK  116  A    between atoms: _318  and  _319
REMARK  117  A    between atoms: _325  and  _326
REMARK  118  A    between atoms: _331  and  _333
REMARK  119  A    between atoms: _333  and  _334
REMARK  120  A    between atoms: _333  and  _336
REMARK  121  A    between atoms: _336  and  _337
REMARK  122  A    between atoms: _340  and  _342
REMARK  123  A    between atoms: _342  and  _343
REMARK  124  A    between atoms: _342  and  _345
REMARK  125  A    between atoms: _345  and  _346
REMARK  126  A    between atoms: _349  and  _351
REMARK  127  A    between atoms: _351  and  _352
REMARK  128  A    between atoms: _351  and  _354
REMARK  129  A    between atoms: _356  and  _358
REMARK  130  A    between atoms: _358  and  _359
REMARK  131  A    between atoms: _358  and  _361
REMARK  132  A    between atoms: _364  and  _366
REMARK  133  A    between atoms: _366  and  _367
REMARK  134  A    between atoms: _366  and  _369
REMARK  135  A    between atoms: _369  and  _370
REMARK  136  A    between atoms: _380  and  _382
REMARK  137  A    between atoms: _382  and  _383
REMARK  138  A    between atoms: _382  and  _385
REMARK  139  A    between atoms: _385  and  _386
REMARK  140  A    between atoms: _391  and  _393
REMARK  141  A    between atoms: _393  and  _394
REMARK  142  A    between atoms: _393  and  _396
REMARK  143  A    between atoms: _396  and  _397
REMARK  144  A    between atoms: _397  and  _398
REMARK  145  A    between atoms: _398  and  _399
REMARK                            x       y       z     vdW  Elec       q    Type
REMARK                         _______ _______ _______ _____ _____    ______ ____
ROOT
ATOM      1  O   HOH     1      -2.561  -3.169  11.417  0.00  0.00    +0.000 OA
ENDROOT
TORSDOF 0
REMARK  Name = ../refined-set-2016/4ruz/4ruz_pocket.pdb
REMARK  145 active torsions:
REMARK  status: ('A' for Active; 'I' for Inactive)
REMARK    1  A    between atoms: _1  and  _3
REMARK    2  A    between atoms: _3  and  _4
REMARK    3  A    between atoms: _3  and  _6
REMARK    4  A    between atoms: _6  and  _7
REMARK    5  A    between atoms: _17  and  _19
REMARK    6  A    between atoms: _19  and  _20
REMARK    7  A    between atoms: _19  and  _22
REMARK    8  A    between atoms: _22  and  _23
REMARK    9  A    between atoms: _28  and  _29
REMARK   10  A    between atoms: _31  and  _33
REMARK   11  A    between atoms: _33  and  _34
REMARK   12  A    between atoms: _33  and  _36
REMARK   13  A    between atoms: _36  and  _37
REMARK   14  A    between atoms: _40  and  _41
REMARK   15  A    between atoms: _46  and  _48
REMARK   16  A    between atoms: _48  and  _49
REMARK   17  A    between atoms: _48  and  _51
REMARK   18  A    between atoms: _51  and  _52
REMARK   19  A    between atoms: _57  and  _59
REMARK   20  A    between atoms: _59  and  _60
REMARK   21  A    between atoms: _63  and  _65
REMARK   22  A    between atoms: _65  and  _66
REMARK   23  A    between atoms: _65  and  _68
REMARK   24  A    between atoms: _68  and  _69
REMARK   25  A    between atoms: _74  and  _76
REMARK   26  A    between atoms: _76  and  _77
REMARK   27  A    between atoms: _76  and  _79
REMARK   28  A    between atoms: _79  and  _80
REMARK   29  A    between atoms: _83  and  _85
REMARK   30  A    between atoms: _85  and  _86
REMARK   31  A    between atoms: _85  and  _88
REMARK   32  A    between atoms: _88  and  _89
REMARK   33  A    between atoms: _89  and  _90
REMARK   34  A    between atoms: _95  and  _97
REMARK   35  A    between atoms: _97  and  _98
REMARK   36  A    between atoms: _97  and  _100
REMARK   37  A    between atoms: _100  and  _101
REMARK   38  A    between atoms: _107  and  _109
REMARK   39  A    between atoms: _120  and  _123
REMARK   40  A    between atoms: _123  and  _124
REMARK   41  A    between atoms: _132  and  _133
REMARK   42  A    between atoms: _141  and  _143
REMARK   43  A    between atoms: _143  and  _144
REMARK   44  A    between atoms: _143  and  _146
REMARK   45  A    between atoms: _146  and  _147
REMARK   46  A    between atoms: _147  and  _148
REMARK   47  A    between atoms: _151  and  _153
REMARK   48  A    between atoms: _153  and  _154
REMARK   49  A    between atoms: _153  and  _156
REMARK   50  A    between atoms: _156  and  _157
REMARK   51  A    between atoms: _162  and  _164
REMARK   52  A    between atoms: _164  and  _165
REMARK   53  A    between atoms: _164  and  _167
REMARK   54  A    between atoms: _167  and  _168
REMARK   55  A    between atoms: _168  and  _169
REMARK   56  A    between atoms: _172  and  _174
REMARK   57  A    between atoms: _174  and  _175
REMARK   58  A    between atoms: _174  and  _177
REMARK   59  A    between atoms: _177  and  _178
REMARK   60  A    between atoms: _181  and  _183
REMARK   61  A    between atoms: _183  and  _184
REMARK   62  A    between atoms: _183  and  _186
REMARK   63  A    between atoms: _186  and  _187
REMARK   64  A    between atoms: _188  and  ZN_408
REMARK   65  A    between atoms: _192  and  _194
REMARK   66  A    between atoms: _194  and  _195
REMARK   67  A    between atoms: _194  and  _197
REMARK   68  A    between atoms: _197  and  _198
REMARK   69  A    between atoms: _201  and  _203
REMARK   70  A    between atoms: _203  and  _204
REMARK   71  A    between atoms: _203  and  _206
REMARK   72  A    between atoms: _209  and  _211
REMARK   73  A    between atoms: _211  and  _212
REMARK   74  A    between atoms: _211  and  _214
REMARK   75  A    between atoms: _214  and  _215
REMARK   76  A    between atoms: _220  and  _222
REMARK   77  A    between atoms: _222  and  _223
REMARK   78  A    between atoms: _222  and  _225
REMARK   79  A    between atoms: _225  and  _226
REMARK   80  A    between atoms: _232  and  _234
REMARK   81  A    between atoms: _234  and  _235
REMARK   82  A    between atoms: _234  and  _237
REMARK   83  A    between atoms: _240  and  _242
REMARK   84  A    between atoms: _242  and  _243
REMARK   85  A    between atoms: _242  and  _245
REMARK   86  A    between atoms: _245  and  _246
REMARK   87  A    between atoms: _249  and  _251
REMARK   88  A    between atoms: _251  and  _252
REMARK   89  A    between atoms: _255  and  _257
REMARK   90  A    between atoms: _257  and  _258
REMARK   91  A    between atoms: _257  and  _260
REMARK   92  A    between atoms: _263  and  _265
REMARK   93  A    between atoms: _265  and  _266
REMARK   94  A    between atoms: _265  and  _268
REMARK   95  A    between atoms: _268  and  _269
REMARK   96  A    between atoms: _272  and  _274
REMARK   97  A    between atoms: _274  and  _275
REMARK   98  A    between atoms: _277  and  _279
REMARK   99  A    between atoms: _279  and  _280
REMARK  100  A    between atoms: _282  and  _284
REMARK  101  A    between atoms: _284  and  _285
REMARK  102  A    between atoms: _284  and  _287
REMARK  103  A    between atoms: _287  and  _288
REMARK  104  A    between atoms: _290  and  _292
REMARK  105  A    between atoms: _292  and  _293
REMARK  106  A    between atoms: _292  and  _295
REMARK  107  A    between atoms: _295  and  _296
REMARK  108  A    between atoms: _299  and  _301
REMARK  109  A    between atoms: _301  and  _302
REMARK  110  A    between atoms: _301  and  _304
REMARK  111  A    between atoms: _304  and  _305
REMARK  112  A    between atoms: _308  and  _310
REMARK  113  A    between atoms: _310  and  _311
REMARK  114  A    between atoms: _310  and  _313
REMARK  115  A    between atoms: _313  and  _314
REMARK  116  A    between atoms: _318  and  _319
REMARK  117  A    between atoms: _325  and  _326
REMARK  118  A    between atoms: _331  and  _333
REMARK  119  A    between atoms: _333  and  _334
REMARK  120  A    between atoms: _333  and  _336
REMARK  121  A    between atoms: _336  and  _337
REMARK  122  A    between atoms: _340  and  _342
REMARK  123  A    between atoms: _342  and  _343
REMARK  124  A    between atoms: _342  and  _345
REMARK  125  A    between atoms: _345  and  _346
REMARK  126  A    between atoms: _349  and  _351
REMARK  127  A    between atoms: _351  and  _352
REMARK  128  A    between atoms: _351  and  _354
REMARK  129  A    between atoms: _356  and  _358
REMARK  130  A    between atoms: _358  and  _359
REMARK  131  A    between atoms: _358  and  _361
REMARK  132  A    between atoms: _364  and  _366
REMARK  133  A    between atoms: _366  and  _367
REMARK  134  A    between atoms: _366  and  _369
REMARK  135  A    between atoms: _369  and  _370
REMARK  136  A    between atoms: _380  and  _382
REMARK  137  A    between atoms: _382  and  _383
REMARK  138  A    between atoms: _382  and  _385
REMARK  139  A    between atoms: _385  and  _386
REMARK  140  A    between atoms: _391  and  _393
REMARK  141  A    between atoms: _393  and  _394
REMARK  142  A    between atoms: _393  and  _396
REMARK  143  A    between atoms: _396  and  _397
REMARK  144  A    between atoms: _397  and  _398
REMARK  145  A    between atoms: _398  and  _399
REMARK                            x       y       z     vdW  Elec       q    Type
REMARK                         _______ _______ _______ _____ _____    ______ ____
ROOT
ATOM      1  O   HOH     1      -6.960   6.156   6.606  0.00  0.00    +0.000 OA
ENDROOT
TORSDOF 0
REMARK  Name = ../refined-set-2016/4ruz/4ruz_pocket.pdb
REMARK  145 active torsions:
REMARK  status: ('A' for Active; 'I' for Inactive)
REMARK    1  A    between atoms: _1  and  _3
REMARK    2  A    between atoms: _3  and  _4
REMARK    3  A    between atoms: _3  and  _6
REMARK    4  A    between atoms: _6  and  _7
REMARK    5  A    between atoms: _17  and  _19
REMARK    6  A    between atoms: _19  and  _20
REMARK    7  A    between atoms: _19  and  _22
REMARK    8  A    between atoms: _22  and  _23
REMARK    9  A    between atoms: _28  and  _29
REMARK   10  A    between atoms: _31  and  _33
REMARK   11  A    between atoms: _33  and  _34
REMARK   12  A    between atoms: _33  and  _36
REMARK   13  A    between atoms: _36  and  _37
REMARK   14  A    between atoms: _40  and  _41
REMARK   15  A    between atoms: _46  and  _48
REMARK   16  A    between atoms: _48  and  _49
REMARK   17  A    between atoms: _48  and  _51
REMARK   18  A    between atoms: _51  and  _52
REMARK   19  A    between atoms: _57  and  _59
REMARK   20  A    between atoms: _59  and  _60
REMARK   21  A    between atoms: _63  and  _65
REMARK   22  A    between atoms: _65  and  _66
REMARK   23  A    between atoms: _65  and  _68
REMARK   24  A    between atoms: _68  and  _69
REMARK   25  A    between atoms: _74  and  _76
REMARK   26  A    between atoms: _76  and  _77
REMARK   27  A    between atoms: _76  and  _79
REMARK   28  A    between atoms: _79  and  _80
REMARK   29  A    between atoms: _83  and  _85
REMARK   30  A    between atoms: _85  and  _86
REMARK   31  A    between atoms: _85  and  _88
REMARK   32  A    between atoms: _88  and  _89
REMARK   33  A    between atoms: _89  and  _90
REMARK   34  A    between atoms: _95  and  _97
REMARK   35  A    between atoms: _97  and  _98
REMARK   36  A    between atoms: _97  and  _100
REMARK   37  A    between atoms: _100  and  _101
REMARK   38  A    between atoms: _107  and  _109
REMARK   39  A    between atoms: _120  and  _123
REMARK   40  A    between atoms: _123  and  _124
REMARK   41  A    between atoms: _132  and  _133
REMARK   42  A    between atoms: _141  and  _143
REMARK   43  A    between atoms: _143  and  _144
REMARK   44  A    between atoms: _143  and  _146
REMARK   45  A    between atoms: _146  and  _147
REMARK   46  A    between atoms: _147  and  _148
REMARK   47  A    between atoms: _151  and  _153
REMARK   48  A    between atoms: _153  and  _154
REMARK   49  A    between atoms: _153  and  _156
REMARK   50  A    between atoms: _156  and  _157
REMARK   51  A    between atoms: _162  and  _164
REMARK   52  A    between atoms: _164  and  _165
REMARK   53  A    between atoms: _164  and  _167
REMARK   54  A    between atoms: _167  and  _168
REMARK   55  A    between atoms: _168  and  _169
REMARK   56  A    between atoms: _172  and  _174
REMARK   57  A    between atoms: _174  and  _175
REMARK   58  A    between atoms: _174  and  _177
REMARK   59  A    between atoms: _177  and  _178
REMARK   60  A    between atoms: _181  and  _183
REMARK   61  A    between atoms: _183  and  _184
REMARK   62  A    between atoms: _183  and  _186
REMARK   63  A    between atoms: _186  and  _187
REMARK   64  A    between atoms: _188  and  ZN_408
REMARK   65  A    between atoms: _192  and  _194
REMARK   66  A    between atoms: _194  and  _195
REMARK   67  A    between atoms: _194  and  _197
REMARK   68  A    between atoms: _197  and  _198
REMARK   69  A    between atoms: _201  and  _203
REMARK   70  A    between atoms: _203  and  _204
REMARK   71  A    between atoms: _203  and  _206
REMARK   72  A    between atoms: _209  and  _211
REMARK   73  A    between atoms: _211  and  _212
REMARK   74  A    between atoms: _211  and  _214
REMARK   75  A    between atoms: _214  and  _215
REMARK   76  A    between atoms: _220  and  _222
REMARK   77  A    between atoms: _222  and  _223
REMARK   78  A    between atoms: _222  and  _225
REMARK   79  A    between atoms: _225  and  _226
REMARK   80  A    between atoms: _232  and  _234
REMARK   81  A    between atoms: _234  and  _235
REMARK   82  A    between atoms: _234  and  _237
REMARK   83  A    between atoms: _240  and  _242
REMARK   84  A    between atoms: _242  and  _243
REMARK   85  A    between atoms: _242  and  _245
REMARK   86  A    between atoms: _245  and  _246
REMARK   87  A    between atoms: _249  and  _251
REMARK   88  A    between atoms: _251  and  _252
REMARK   89  A    between atoms: _255  and  _257
REMARK   90  A    between atoms: _257  and  _258
REMARK   91  A    between atoms: _257  and  _260
REMARK   92  A    between atoms: _263  and  _265
REMARK   93  A    between atoms: _265  and  _266
REMARK   94  A    between atoms: _265  and  _268
REMARK   95  A    between atoms: _268  and  _269
REMARK   96  A    between atoms: _272  and  _274
REMARK   97  A    between atoms: _274  and  _275
REMARK   98  A    between atoms: _277  and  _279
REMARK   99  A    between atoms: _279  and  _280
REMARK  100  A    between atoms: _282  and  _284
REMARK  101  A    between atoms: _284  and  _285
REMARK  102  A    between atoms: _284  and  _287
REMARK  103  A    between atoms: _287  and  _288
REMARK  104  A    between atoms: _290  and  _292
REMARK  105  A    between atoms: _292  and  _293
REMARK  106  A    between atoms: _292  and  _295
REMARK  107  A    between atoms: _295  and  _296
REMARK  108  A    between atoms: _299  and  _301
REMARK  109  A    between atoms: _301  and  _302
REMARK  110  A    between atoms: _301  and  _304
REMARK  111  A    between atoms: _304  and  _305
REMARK  112  A    between atoms: _308  and  _310
REMARK  113  A    between atoms: _310  and  _311
REMARK  114  A    between atoms: _310  and  _313
REMARK  115  A    between atoms: _313  and  _314
REMARK  116  A    between atoms: _318  and  _319
REMARK  117  A    between atoms: _325  and  _326
REMARK  118  A    between atoms: _331  and  _333
REMARK  119  A    between atoms: _333  and  _334
REMARK  120  A    between atoms: _333  and  _336
REMARK  121  A    between atoms: _336  and  _337
REMARK  122  A    between atoms: _340  and  _342
REMARK  123  A    between atoms: _342  and  _343
REMARK  124  A    between atoms: _342  and  _345
REMARK  125  A    between atoms: _345  and  _346
REMARK  126  A    between atoms: _349  and  _351
REMARK  127  A    between atoms: _351  and  _352
REMARK  128  A    between atoms: _351  and  _354
REMARK  129  A    between atoms: _356  and  _358
REMARK  130  A    between atoms: _358  and  _359
REMARK  131  A    between atoms: _358  and  _361
REMARK  132  A    between atoms: _364  and  _366
REMARK  133  A    between atoms: _366  and  _367
REMARK  134  A    between atoms: _366  and  _369
REMARK  135  A    between atoms: _369  and  _370
REMARK  136  A    between atoms: _380  and  _382
REMARK  137  A    between atoms: _382  and  _383
REMARK  138  A    between atoms: _382  and  _385
REMARK  139  A    between atoms: _385  and  _386
REMARK  140  A    between atoms: _391  and  _393
REMARK  141  A    between atoms: _393  and  _394
REMARK  142  A    between atoms: _393  and  _396
REMARK  143  A    between atoms: _396  and  _397
REMARK  144  A    between atoms: _397  and  _398
REMARK  145  A    between atoms: _398  and  _399
REMARK                            x       y       z     vdW  Elec       q    Type
REMARK                         _______ _______ _______ _____ _____    ______ ____
ROOT
ATOM      1  O   HOH     1      -4.068   5.101   7.013  0.00  0.00    +0.000 OA
ENDROOT
TORSDOF 0
REMARK  Name = ../refined-set-2016/4ruz/4ruz_pocket.pdb
REMARK  145 active torsions:
REMARK  status: ('A' for Active; 'I' for Inactive)
REMARK    1  A    between atoms: _1  and  _3
REMARK    2  A    between atoms: _3  and  _4
REMARK    3  A    between atoms: _3  and  _6
REMARK    4  A    between atoms: _6  and  _7
REMARK    5  A    between atoms: _17  and  _19
REMARK    6  A    between atoms: _19  and  _20
REMARK    7  A    between atoms: _19  and  _22
REMARK    8  A    between atoms: _22  and  _23
REMARK    9  A    between atoms: _28  and  _29
REMARK   10  A    between atoms: _31  and  _33
REMARK   11  A    between atoms: _33  and  _34
REMARK   12  A    between atoms: _33  and  _36
REMARK   13  A    between atoms: _36  and  _37
REMARK   14  A    between atoms: _40  and  _41
REMARK   15  A    between atoms: _46  and  _48
REMARK   16  A    between atoms: _48  and  _49
REMARK   17  A    between atoms: _48  and  _51
REMARK   18  A    between atoms: _51  and  _52
REMARK   19  A    between atoms: _57  and  _59
REMARK   20  A    between atoms: _59  and  _60
REMARK   21  A    between atoms: _63  and  _65
REMARK   22  A    between atoms: _65  and  _66
REMARK   23  A    between atoms: _65  and  _68
REMARK   24  A    between atoms: _68  and  _69
REMARK   25  A    between atoms: _74  and  _76
REMARK   26  A    between atoms: _76  and  _77
REMARK   27  A    between atoms: _76  and  _79
REMARK   28  A    between atoms: _79  and  _80
REMARK   29  A    between atoms: _83  and  _85
REMARK   30  A    between atoms: _85  and  _86
REMARK   31  A    between atoms: _85  and  _88
REMARK   32  A    between atoms: _88  and  _89
REMARK   33  A    between atoms: _89  and  _90
REMARK   34  A    between atoms: _95  and  _97
REMARK   35  A    between atoms: _97  and  _98
REMARK   36  A    between atoms: _97  and  _100
REMARK   37  A    between atoms: _100  and  _101
REMARK   38  A    between atoms: _107  and  _109
REMARK   39  A    between atoms: _120  and  _123
REMARK   40  A    between atoms: _123  and  _124
REMARK   41  A    between atoms: _132  and  _133
REMARK   42  A    between atoms: _141  and  _143
REMARK   43  A    between atoms: _143  and  _144
REMARK   44  A    between atoms: _143  and  _146
REMARK   45  A    between atoms: _146  and  _147
REMARK   46  A    between atoms: _147  and  _148
REMARK   47  A    between atoms: _151  and  _153
REMARK   48  A    between atoms: _153  and  _154
REMARK   49  A    between atoms: _153  and  _156
REMARK   50  A    between atoms: _156  and  _157
REMARK   51  A    between atoms: _162  and  _164
REMARK   52  A    between atoms: _164  and  _165
REMARK   53  A    between atoms: _164  and  _167
REMARK   54  A    between atoms: _167  and  _168
REMARK   55  A    between atoms: _168  and  _169
REMARK   56  A    between atoms: _172  and  _174
REMARK   57  A    between atoms: _174  and  _175
REMARK   58  A    between atoms: _174  and  _177
REMARK   59  A    between atoms: _177  and  _178
REMARK   60  A    between atoms: _181  and  _183
REMARK   61  A    between atoms: _183  and  _184
REMARK   62  A    between atoms: _183  and  _186
REMARK   63  A    between atoms: _186  and  _187
REMARK   64  A    between atoms: _188  and  ZN_408
REMARK   65  A    between atoms: _192  and  _194
REMARK   66  A    between atoms: _194  and  _195
REMARK   67  A    between atoms: _194  and  _197
REMARK   68  A    between atoms: _197  and  _198
REMARK   69  A    between atoms: _201  and  _203
REMARK   70  A    between atoms: _203  and  _204
REMARK   71  A    between atoms: _203  and  _206
REMARK   72  A    between atoms: _209  and  _211
REMARK   73  A    between atoms: _211  and  _212
REMARK   74  A    between atoms: _211  and  _214
REMARK   75  A    between atoms: _214  and  _215
REMARK   76  A    between atoms: _220  and  _222
REMARK   77  A    between atoms: _222  and  _223
REMARK   78  A    between atoms: _222  and  _225
REMARK   79  A    between atoms: _225  and  _226
REMARK   80  A    between atoms: _232  and  _234
REMARK   81  A    between atoms: _234  and  _235
REMARK   82  A    between atoms: _234  and  _237
REMARK   83  A    between atoms: _240  and  _242
REMARK   84  A    between atoms: _242  and  _243
REMARK   85  A    between atoms: _242  and  _245
REMARK   86  A    between atoms: _245  and  _246
REMARK   87  A    between atoms: _249  and  _251
REMARK   88  A    between atoms: _251  and  _252
REMARK   89  A    between atoms: _255  and  _257
REMARK   90  A    between atoms: _257  and  _258
REMARK   91  A    between atoms: _257  and  _260
REMARK   92  A    between atoms: _263  and  _265
REMARK   93  A    between atoms: _265  and  _266
REMARK   94  A    between atoms: _265  and  _268
REMARK   95  A    between atoms: _268  and  _269
REMARK   96  A    between atoms: _272  and  _274
REMARK   97  A    between atoms: _274  and  _275
REMARK   98  A    between atoms: _277  and  _279
REMARK   99  A    between atoms: _279  and  _280
REMARK  100  A    between atoms: _282  and  _284
REMARK  101  A    between atoms: _284  and  _285
REMARK  102  A    between atoms: _284  and  _287
REMARK  103  A    between atoms: _287  and  _288
REMARK  104  A    between atoms: _290  and  _292
REMARK  105  A    between atoms: _292  and  _293
REMARK  106  A    between atoms: _292  and  _295
REMARK  107  A    between atoms: _295  and  _296
REMARK  108  A    between atoms: _299  and  _301
REMARK  109  A    between atoms: _301  and  _302
REMARK  110  A    between atoms: _301  and  _304
REMARK  111  A    between atoms: _304  and  _305
REMARK  112  A    between atoms: _308  and  _310
REMARK  113  A    between atoms: _310  and  _311
REMARK  114  A    between atoms: _310  and  _313
REMARK  115  A    between atoms: _313  and  _314
REMARK  116  A    between atoms: _318  and  _319
REMARK  117  A    between atoms: _325  and  _326
REMARK  118  A    between atoms: _331  and  _333
REMARK  119  A    between atoms: _333  and  _334
REMARK  120  A    between atoms: _333  and  _336
REMARK  121  A    between atoms: _336  and  _337
REMARK  122  A    between atoms: _340  and  _342
REMARK  123  A    between atoms: _342  and  _343
REMARK  124  A    between atoms: _342  and  _345
REMARK  125  A    between atoms: _345  and  _346
REMARK  126  A    between atoms: _349  and  _351
REMARK  127  A    between atoms: _351  and  _352
REMARK  128  A    between atoms: _351  and  _354
REMARK  129  A    between atoms: _356  and  _358
REMARK  130  A    between atoms: _358  and  _359
REMARK  131  A    between atoms: _358  and  _361
REMARK  132  A    between atoms: _364  and  _366
REMARK  133  A    between atoms: _366  and  _367
REMARK  134  A    between atoms: _366  and  _369
REMARK  135  A    between atoms: _369  and  _370
REMARK  136  A    between atoms: _380  and  _382
REMARK  137  A    between atoms: _382  and  _383
REMARK  138  A    between atoms: _382  and  _385
REMARK  139  A    between atoms: _385  and  _386
REMARK  140  A    between atoms: _391  and  _393
REMARK  141  A    between atoms: _393  and  _394
REMARK  142  A    between atoms: _393  and  _396
REMARK  143  A    between atoms: _396  and  _397
REMARK  144  A    between atoms: _397  and  _398
REMARK  145  A    between atoms: _398  and  _399
REMARK                            x       y       z     vdW  Elec       q    Type
REMARK                         _______ _______ _______ _____ _____    ______ ____
ROOT
ATOM      1  O   HOH     1      -1.095   1.665  11.429  0.00  0.00    +0.000 OA
ENDROOT
TORSDOF 0
REMARK  Name = ../refined-set-2016/4ruz/4ruz_pocket.pdb
REMARK  145 active torsions:
REMARK  status: ('A' for Active; 'I' for Inactive)
REMARK    1  A    between atoms: _1  and  _3
REMARK    2  A    between atoms: _3  and  _4
REMARK    3  A    between atoms: _3  and  _6
REMARK    4  A    between atoms: _6  and  _7
REMARK    5  A    between atoms: _17  and  _19
REMARK    6  A    between atoms: _19  and  _20
REMARK    7  A    between atoms: _19  and  _22
REMARK    8  A    between atoms: _22  and  _23
REMARK    9  A    between atoms: _28  and  _29
REMARK   10  A    between atoms: _31  and  _33
REMARK   11  A    between atoms: _33  and  _34
REMARK   12  A    between atoms: _33  and  _36
REMARK   13  A    between atoms: _36  and  _37
REMARK   14  A    between atoms: _40  and  _41
REMARK   15  A    between atoms: _46  and  _48
REMARK   16  A    between atoms: _48  and  _49
REMARK   17  A    between atoms: _48  and  _51
REMARK   18  A    between atoms: _51  and  _52
REMARK   19  A    between atoms: _57  and  _59
REMARK   20  A    between atoms: _59  and  _60
REMARK   21  A    between atoms: _63  and  _65
REMARK   22  A    between atoms: _65  and  _66
REMARK   23  A    between atoms: _65  and  _68
REMARK   24  A    between atoms: _68  and  _69
REMARK   25  A    between atoms: _74  and  _76
REMARK   26  A    between atoms: _76  and  _77
REMARK   27  A    between atoms: _76  and  _79
REMARK   28  A    between atoms: _79  and  _80
REMARK   29  A    between atoms: _83  and  _85
REMARK   30  A    between atoms: _85  and  _86
REMARK   31  A    between atoms: _85  and  _88
REMARK   32  A    between atoms: _88  and  _89
REMARK   33  A    between atoms: _89  and  _90
REMARK   34  A    between atoms: _95  and  _97
REMARK   35  A    between atoms: _97  and  _98
REMARK   36  A    between atoms: _97  and  _100
REMARK   37  A    between atoms: _100  and  _101
REMARK   38  A    between atoms: _107  and  _109
REMARK   39  A    between atoms: _120  and  _123
REMARK   40  A    between atoms: _123  and  _124
REMARK   41  A    between atoms: _132  and  _133
REMARK   42  A    between atoms: _141  and  _143
REMARK   43  A    between atoms: _143  and  _144
REMARK   44  A    between atoms: _143  and  _146
REMARK   45  A    between atoms: _146  and  _147
REMARK   46  A    between atoms: _147  and  _148
REMARK   47  A    between atoms: _151  and  _153
REMARK   48  A    between atoms: _153  and  _154
REMARK   49  A    between atoms: _153  and  _156
REMARK   50  A    between atoms: _156  and  _157
REMARK   51  A    between atoms: _162  and  _164
REMARK   52  A    between atoms: _164  and  _165
REMARK   53  A    between atoms: _164  and  _167
REMARK   54  A    between atoms: _167  and  _168
REMARK   55  A    between atoms: _168  and  _169
REMARK   56  A    between atoms: _172  and  _174
REMARK   57  A    between atoms: _174  and  _175
REMARK   58  A    between atoms: _174  and  _177
REMARK   59  A    between atoms: _177  and  _178
REMARK   60  A    between atoms: _181  and  _183
REMARK   61  A    between atoms: _183  and  _184
REMARK   62  A    between atoms: _183  and  _186
REMARK   63  A    between atoms: _186  and  _187
REMARK   64  A    between atoms: _188  and  ZN_408
REMARK   65  A    between atoms: _192  and  _194
REMARK   66  A    between atoms: _194  and  _195
REMARK   67  A    between atoms: _194  and  _197
REMARK   68  A    between atoms: _197  and  _198
REMARK   69  A    between atoms: _201  and  _203
REMARK   70  A    between atoms: _203  and  _204
REMARK   71  A    between atoms: _203  and  _206
REMARK   72  A    between atoms: _209  and  _211
REMARK   73  A    between atoms: _211  and  _212
REMARK   74  A    between atoms: _211  and  _214
REMARK   75  A    between atoms: _214  and  _215
REMARK   76  A    between atoms: _220  and  _222
REMARK   77  A    between atoms: _222  and  _223
REMARK   78  A    between atoms: _222  and  _225
REMARK   79  A    between atoms: _225  and  _226
REMARK   80  A    between atoms: _232  and  _234
REMARK   81  A    between atoms: _234  and  _235
REMARK   82  A    between atoms: _234  and  _237
REMARK   83  A    between atoms: _240  and  _242
REMARK   84  A    between atoms: _242  and  _243
REMARK   85  A    between atoms: _242  and  _245
REMARK   86  A    between atoms: _245  and  _246
REMARK   87  A    between atoms: _249  and  _251
REMARK   88  A    between atoms: _251  and  _252
REMARK   89  A    between atoms: _255  and  _257
REMARK   90  A    between atoms: _257  and  _258
REMARK   91  A    between atoms: _257  and  _260
REMARK   92  A    between atoms: _263  and  _265
REMARK   93  A    between atoms: _265  and  _266
REMARK   94  A    between atoms: _265  and  _268
REMARK   95  A    between atoms: _268  and  _269
REMARK   96  A    between atoms: _272  and  _274
REMARK   97  A    between atoms: _274  and  _275
REMARK   98  A    between atoms: _277  and  _279
REMARK   99  A    between atoms: _279  and  _280
REMARK  100  A    between atoms: _282  and  _284
REMARK  101  A    between atoms: _284  and  _285
REMARK  102  A    between atoms: _284  and  _287
REMARK  103  A    between atoms: _287  and  _288
REMARK  104  A    between atoms: _290  and  _292
REMARK  105  A    between atoms: _292  and  _293
REMARK  106  A    between atoms: _292  and  _295
REMARK  107  A    between atoms: _295  and  _296
REMARK  108  A    between atoms: _299  and  _301
REMARK  109  A    between atoms: _301  and  _302
REMARK  110  A    between atoms: _301  and  _304
REMARK  111  A    between atoms: _304  and  _305
REMARK  112  A    between atoms: _308  and  _310
REMARK  113  A    between atoms: _310  and  _311
REMARK  114  A    between atoms: _310  and  _313
REMARK  115  A    between atoms: _313  and  _314
REMARK  116  A    between atoms: _318  and  _319
REMARK  117  A    between atoms: _325  and  _326
REMARK  118  A    between atoms: _331  and  _333
REMARK  119  A    between atoms: _333  and  _334
REMARK  120  A    between atoms: _333  and  _336
REMARK  121  A    between atoms: _336  and  _337
REMARK  122  A    between atoms: _340  and  _342
REMARK  123  A    between atoms: _342  and  _343
REMARK  124  A    between atoms: _342  and  _345
REMARK  125  A    between atoms: _345  and  _346
REMARK  126  A    between atoms: _349  and  _351
REMARK  127  A    between atoms: _351  and  _352
REMARK  128  A    between atoms: _351  and  _354
REMARK  129  A    between atoms: _356  and  _358
REMARK  130  A    between atoms: _358  and  _359
REMARK  131  A    between atoms: _358  and  _361
REMARK  132  A    between atoms: _364  and  _366
REMARK  133  A    between atoms: _366  and  _367
REMARK  134  A    between atoms: _366  and  _369
REMARK  135  A    between atoms: _369  and  _370
REMARK  136  A    between atoms: _380  and  _382
REMARK  137  A    between atoms: _382  and  _383
REMARK  138  A    between atoms: _382  and  _385
REMARK  139  A    between atoms: _385  and  _386
REMARK  140  A    between atoms: _391  and  _393
REMARK  141  A    between atoms: _393  and  _394
REMARK  142  A    between atoms: _393  and  _396
REMARK  143  A    between atoms: _396  and  _397
REMARK  144  A    between atoms: _397  and  _398
REMARK  145  A    between atoms: _398  and  _399
REMARK                            x       y       z     vdW  Elec       q    Type
REMARK                         _______ _______ _______ _____ _____    ______ ____
ROOT
ATOM      1  O   HOH     1      -0.823   4.002  10.477  0.00  0.00    +0.000 OA
ENDROOT
TORSDOF 0
REMARK  Name = ../refined-set-2016/4ruz/4ruz_pocket.pdb
REMARK  145 active torsions:
REMARK  status: ('A' for Active; 'I' for Inactive)
REMARK    1  A    between atoms: _1  and  _3
REMARK    2  A    between atoms: _3  and  _4
REMARK    3  A    between atoms: _3  and  _6
REMARK    4  A    between atoms: _6  and  _7
REMARK    5  A    between atoms: _17  and  _19
REMARK    6  A    between atoms: _19  and  _20
REMARK    7  A    between atoms: _19  and  _22
REMARK    8  A    between atoms: _22  and  _23
REMARK    9  A    between atoms: _28  and  _29
REMARK   10  A    between atoms: _31  and  _33
REMARK   11  A    between atoms: _33  and  _34
REMARK   12  A    between atoms: _33  and  _36
REMARK   13  A    between atoms: _36  and  _37
REMARK   14  A    between atoms: _40  and  _41
REMARK   15  A    between atoms: _46  and  _48
REMARK   16  A    between atoms: _48  and  _49
REMARK   17  A    between atoms: _48  and  _51
REMARK   18  A    between atoms: _51  and  _52
REMARK   19  A    between atoms: _57  and  _59
REMARK   20  A    between atoms: _59  and  _60
REMARK   21  A    between atoms: _63  and  _65
REMARK   22  A    between atoms: _65  and  _66
REMARK   23  A    between atoms: _65  and  _68
REMARK   24  A    between atoms: _68  and  _69
REMARK   25  A    between atoms: _74  and  _76
REMARK   26  A    between atoms: _76  and  _77
REMARK   27  A    between atoms: _76  and  _79
REMARK   28  A    between atoms: _79  and  _80
REMARK   29  A    between atoms: _83  and  _85
REMARK   30  A    between atoms: _85  and  _86
REMARK   31  A    between atoms: _85  and  _88
REMARK   32  A    between atoms: _88  and  _89
REMARK   33  A    between atoms: _89  and  _90
REMARK   34  A    between atoms: _95  and  _97
REMARK   35  A    between atoms: _97  and  _98
REMARK   36  A    between atoms: _97  and  _100
REMARK   37  A    between atoms: _100  and  _101
REMARK   38  A    between atoms: _107  and  _109
REMARK   39  A    between atoms: _120  and  _123
REMARK   40  A    between atoms: _123  and  _124
REMARK   41  A    between atoms: _132  and  _133
REMARK   42  A    between atoms: _141  and  _143
REMARK   43  A    between atoms: _143  and  _144
REMARK   44  A    between atoms: _143  and  _146
REMARK   45  A    between atoms: _146  and  _147
REMARK   46  A    between atoms: _147  and  _148
REMARK   47  A    between atoms: _151  and  _153
REMARK   48  A    between atoms: _153  and  _154
REMARK   49  A    between atoms: _153  and  _156
REMARK   50  A    between atoms: _156  and  _157
REMARK   51  A    between atoms: _162  and  _164
REMARK   52  A    between atoms: _164  and  _165
REMARK   53  A    between atoms: _164  and  _167
REMARK   54  A    between atoms: _167  and  _168
REMARK   55  A    between atoms: _168  and  _169
REMARK   56  A    between atoms: _172  and  _174
REMARK   57  A    between atoms: _174  and  _175
REMARK   58  A    between atoms: _174  and  _177
REMARK   59  A    between atoms: _177  and  _178
REMARK   60  A    between atoms: _181  and  _183
REMARK   61  A    between atoms: _183  and  _184
REMARK   62  A    between atoms: _183  and  _186
REMARK   63  A    between atoms: _186  and  _187
REMARK   64  A    between atoms: _188  and  ZN_408
REMARK   65  A    between atoms: _192  and  _194
REMARK   66  A    between atoms: _194  and  _195
REMARK   67  A    between atoms: _194  and  _197
REMARK   68  A    between atoms: _197  and  _198
REMARK   69  A    between atoms: _201  and  _203
REMARK   70  A    between atoms: _203  and  _204
REMARK   71  A    between atoms: _203  and  _206
REMARK   72  A    between atoms: _209  and  _211
REMARK   73  A    between atoms: _211  and  _212
REMARK   74  A    between atoms: _211  and  _214
REMARK   75  A    between atoms: _214  and  _215
REMARK   76  A    between atoms: _220  and  _222
REMARK   77  A    between atoms: _222  and  _223
REMARK   78  A    between atoms: _222  and  _225
REMARK   79  A    between atoms: _225  and  _226
REMARK   80  A    between atoms: _232  and  _234
REMARK   81  A    between atoms: _234  and  _235
REMARK   82  A    between atoms: _234  and  _237
REMARK   83  A    between atoms: _240  and  _242
REMARK   84  A    between atoms: _242  and  _243
REMARK   85  A    between atoms: _242  and  _245
REMARK   86  A    between atoms: _245  and  _246
REMARK   87  A    between atoms: _249  and  _251
REMARK   88  A    between atoms: _251  and  _252
REMARK   89  A    between atoms: _255  and  _257
REMARK   90  A    between atoms: _257  and  _258
REMARK   91  A    between atoms: _257  and  _260
REMARK   92  A    between atoms: _263  and  _265
REMARK   93  A    between atoms: _265  and  _266
REMARK   94  A    between atoms: _265  and  _268
REMARK   95  A    between atoms: _268  and  _269
REMARK   96  A    between atoms: _272  and  _274
REMARK   97  A    between atoms: _274  and  _275
REMARK   98  A    between atoms: _277  and  _279
REMARK   99  A    between atoms: _279  and  _280
REMARK  100  A    between atoms: _282  and  _284
REMARK  101  A    between atoms: _284  and  _285
REMARK  102  A    between atoms: _284  and  _287
REMARK  103  A    between atoms: _287  and  _288
REMARK  104  A    between atoms: _290  and  _292
REMARK  105  A    between atoms: _292  and  _293
REMARK  106  A    between atoms: _292  and  _295
REMARK  107  A    between atoms: _295  and  _296
REMARK  108  A    between atoms: _299  and  _301
REMARK  109  A    between atoms: _301  and  _302
REMARK  110  A    between atoms: _301  and  _304
REMARK  111  A    between atoms: _304  and  _305
REMARK  112  A    between atoms: _308  and  _310
REMARK  113  A    between atoms: _310  and  _311
REMARK  114  A    between atoms: _310  and  _313
REMARK  115  A    between atoms: _313  and  _314
REMARK  116  A    between atoms: _318  and  _319
REMARK  117  A    between atoms: _325  and  _326
REMARK  118  A    between atoms: _331  and  _333
REMARK  119  A    between atoms: _333  and  _334
REMARK  120  A    between atoms: _333  and  _336
REMARK  121  A    between atoms: _336  and  _337
REMARK  122  A    between atoms: _340  and  _342
REMARK  123  A    between atoms: _342  and  _343
REMARK  124  A    between atoms: _342  and  _345
REMARK  125  A    between atoms: _345  and  _346
REMARK  126  A    between atoms: _349  and  _351
REMARK  127  A    between atoms: _351  and  _352
REMARK  128  A    between atoms: _351  and  _354
REMARK  129  A    between atoms: _356  and  _358
REMARK  130  A    between atoms: _358  and  _359
REMARK  131  A    between atoms: _358  and  _361
REMARK  132  A    between atoms: _364  and  _366
REMARK  133  A    between atoms: _366  and  _367
REMARK  134  A    between atoms: _366  and  _369
REMARK  135  A    between atoms: _369  and  _370
REMARK  136  A    between atoms: _380  and  _382
REMARK  137  A    between atoms: _382  and  _383
REMARK  138  A    between atoms: _382  and  _385
REMARK  139  A    between atoms: _385  and  _386
REMARK  140  A    between atoms: _391  and  _393
REMARK  141  A    between atoms: _393  and  _394
REMARK  142  A    between atoms: _393  and  _396
REMARK  143  A    between atoms: _396  and  _397
REMARK  144  A    between atoms: _397  and  _398
REMARK  145  A    between atoms: _398  and  _399
REMARK                            x       y       z     vdW  Elec       q    Type
REMARK                         _______ _______ _______ _____ _____    ______ ____
ROOT
ATOM      1  O   HOH     1      -8.215   7.974   8.471  0.00  0.00    +0.000 OA
ENDROOT
TORSDOF 0
REMARK  Name = ../refined-set-2016/4ruz/4ruz_pocket.pdb
REMARK  145 active torsions:
REMARK  status: ('A' for Active; 'I' for Inactive)
REMARK    1  A    between atoms: _1  and  _3
REMARK    2  A    between atoms: _3  and  _4
REMARK    3  A    between atoms: _3  and  _6
REMARK    4  A    between atoms: _6  and  _7
REMARK    5  A    between atoms: _17  and  _19
REMARK    6  A    between atoms: _19  and  _20
REMARK    7  A    between atoms: _19  and  _22
REMARK    8  A    between atoms: _22  and  _23
REMARK    9  A    between atoms: _28  and  _29
REMARK   10  A    between atoms: _31  and  _33
REMARK   11  A    between atoms: _33  and  _34
REMARK   12  A    between atoms: _33  and  _36
REMARK   13  A    between atoms: _36  and  _37
REMARK   14  A    between atoms: _40  and  _41
REMARK   15  A    between atoms: _46  and  _48
REMARK   16  A    between atoms: _48  and  _49
REMARK   17  A    between atoms: _48  and  _51
REMARK   18  A    between atoms: _51  and  _52
REMARK   19  A    between atoms: _57  and  _59
REMARK   20  A    between atoms: _59  and  _60
REMARK   21  A    between atoms: _63  and  _65
REMARK   22  A    between atoms: _65  and  _66
REMARK   23  A    between atoms: _65  and  _68
REMARK   24  A    between atoms: _68  and  _69
REMARK   25  A    between atoms: _74  and  _76
REMARK   26  A    between atoms: _76  and  _77
REMARK   27  A    between atoms: _76  and  _79
REMARK   28  A    between atoms: _79  and  _80
REMARK   29  A    between atoms: _83  and  _85
REMARK   30  A    between atoms: _85  and  _86
REMARK   31  A    between atoms: _85  and  _88
REMARK   32  A    between atoms: _88  and  _89
REMARK   33  A    between atoms: _89  and  _90
REMARK   34  A    between atoms: _95  and  _97
REMARK   35  A    between atoms: _97  and  _98
REMARK   36  A    between atoms: _97  and  _100
REMARK   37  A    between atoms: _100  and  _101
REMARK   38  A    between atoms: _107  and  _109
REMARK   39  A    between atoms: _120  and  _123
REMARK   40  A    between atoms: _123  and  _124
REMARK   41  A    between atoms: _132  and  _133
REMARK   42  A    between atoms: _141  and  _143
REMARK   43  A    between atoms: _143  and  _144
REMARK   44  A    between atoms: _143  and  _146
REMARK   45  A    between atoms: _146  and  _147
REMARK   46  A    between atoms: _147  and  _148
REMARK   47  A    between atoms: _151  and  _153
REMARK   48  A    between atoms: _153  and  _154
REMARK   49  A    between atoms: _153  and  _156
REMARK   50  A    between atoms: _156  and  _157
REMARK   51  A    between atoms: _162  and  _164
REMARK   52  A    between atoms: _164  and  _165
REMARK   53  A    between atoms: _164  and  _167
REMARK   54  A    between atoms: _167  and  _168
REMARK   55  A    between atoms: _168  and  _169
REMARK   56  A    between atoms: _172  and  _174
REMARK   57  A    between atoms: _174  and  _175
REMARK   58  A    between atoms: _174  and  _177
REMARK   59  A    between atoms: _177  and  _178
REMARK   60  A    between atoms: _181  and  _183
REMARK   61  A    between atoms: _183  and  _184
REMARK   62  A    between atoms: _183  and  _186
REMARK   63  A    between atoms: _186  and  _187
REMARK   64  A    between atoms: _188  and  ZN_408
REMARK   65  A    between atoms: _192  and  _194
REMARK   66  A    between atoms: _194  and  _195
REMARK   67  A    between atoms: _194  and  _197
REMARK   68  A    between atoms: _197  and  _198
REMARK   69  A    between atoms: _201  and  _203
REMARK   70  A    between atoms: _203  and  _204
REMARK   71  A    between atoms: _203  and  _206
REMARK   72  A    between atoms: _209  and  _211
REMARK   73  A    between atoms: _211  and  _212
REMARK   74  A    between atoms: _211  and  _214
REMARK   75  A    between atoms: _214  and  _215
REMARK   76  A    between atoms: _220  and  _222
REMARK   77  A    between atoms: _222  and  _223
REMARK   78  A    between atoms: _222  and  _225
REMARK   79  A    between atoms: _225  and  _226
REMARK   80  A    between atoms: _232  and  _234
REMARK   81  A    between atoms: _234  and  _235
REMARK   82  A    between atoms: _234  and  _237
REMARK   83  A    between atoms: _240  and  _242
REMARK   84  A    between atoms: _242  and  _243
REMARK   85  A    between atoms: _242  and  _245
REMARK   86  A    between atoms: _245  and  _246
REMARK   87  A    between atoms: _249  and  _251
REMARK   88  A    between atoms: _251  and  _252
REMARK   89  A    between atoms: _255  and  _257
REMARK   90  A    between atoms: _257  and  _258
REMARK   91  A    between atoms: _257  and  _260
REMARK   92  A    between atoms: _263  and  _265
REMARK   93  A    between atoms: _265  and  _266
REMARK   94  A    between atoms: _265  and  _268
REMARK   95  A    between atoms: _268  and  _269
REMARK   96  A    between atoms: _272  and  _274
REMARK   97  A    between atoms: _274  and  _275
REMARK   98  A    between atoms: _277  and  _279
REMARK   99  A    between atoms: _279  and  _280
REMARK  100  A    between atoms: _282  and  _284
REMARK  101  A    between atoms: _284  and  _285
REMARK  102  A    between atoms: _284  and  _287
REMARK  103  A    between atoms: _287  and  _288
REMARK  104  A    between atoms: _290  and  _292
REMARK  105  A    between atoms: _292  and  _293
REMARK  106  A    between atoms: _292  and  _295
REMARK  107  A    between atoms: _295  and  _296
REMARK  108  A    between atoms: _299  and  _301
REMARK  109  A    between atoms: _301  and  _302
REMARK  110  A    between atoms: _301  and  _304
REMARK  111  A    between atoms: _304  and  _305
REMARK  112  A    between atoms: _308  and  _310
REMARK  113  A    between atoms: _310  and  _311
REMARK  114  A    between atoms: _310  and  _313
REMARK  115  A    between atoms: _313  and  _314
REMARK  116  A    between atoms: _318  and  _319
REMARK  117  A    between atoms: _325  and  _326
REMARK  118  A    between atoms: _331  and  _333
REMARK  119  A    between atoms: _333  and  _334
REMARK  120  A    between atoms: _333  and  _336
REMARK  121  A    between atoms: _336  and  _337
REMARK  122  A    between atoms: _340  and  _342
REMARK  123  A    between atoms: _342  and  _343
REMARK  124  A    between atoms: _342  and  _345
REMARK  125  A    between atoms: _345  and  _346
REMARK  126  A    between atoms: _349  and  _351
REMARK  127  A    between atoms: _351  and  _352
REMARK  128  A    between atoms: _351  and  _354
REMARK  129  A    between atoms: _356  and  _358
REMARK  130  A    between atoms: _358  and  _359
REMARK  131  A    between atoms: _358  and  _361
REMARK  132  A    between atoms: _364  and  _366
REMARK  133  A    between atoms: _366  and  _367
REMARK  134  A    between atoms: _366  and  _369
REMARK  135  A    between atoms: _369  and  _370
REMARK  136  A    between atoms: _380  and  _382
REMARK  137  A    between atoms: _382  and  _383
REMARK  138  A    between atoms: _382  and  _385
REMARK  139  A    between atoms: _385  and  _386
REMARK  140  A    between atoms: _391  and  _393
REMARK  141  A    between atoms: _393  and  _394
REMARK  142  A    between atoms: _393  and  _396
REMARK  143  A    between atoms: _396  and  _397
REMARK  144  A    between atoms: _397  and  _398
REMARK  145  A    between atoms: _398  and  _399
REMARK                            x       y       z     vdW  Elec       q    Type
REMARK                         _______ _______ _______ _____ _____    ______ ____
ROOT
ATOM      1  O   HOH     1      -6.635   7.121  11.070  0.00  0.00    +0.000 OA
ENDROOT
TORSDOF 0
REMARK  Name = ../refined-set-2016/4ruz/4ruz_pocket.pdb
REMARK  145 active torsions:
REMARK  status: ('A' for Active; 'I' for Inactive)
REMARK    1  A    between atoms: _1  and  _3
REMARK    2  A    between atoms: _3  and  _4
REMARK    3  A    between atoms: _3  and  _6
REMARK    4  A    between atoms: _6  and  _7
REMARK    5  A    between atoms: _17  and  _19
REMARK    6  A    between atoms: _19  and  _20
REMARK    7  A    between atoms: _19  and  _22
REMARK    8  A    between atoms: _22  and  _23
REMARK    9  A    between atoms: _28  and  _29
REMARK   10  A    between atoms: _31  and  _33
REMARK   11  A    between atoms: _33  and  _34
REMARK   12  A    between atoms: _33  and  _36
REMARK   13  A    between atoms: _36  and  _37
REMARK   14  A    between atoms: _40  and  _41
REMARK   15  A    between atoms: _46  and  _48
REMARK   16  A    between atoms: _48  and  _49
REMARK   17  A    between atoms: _48  and  _51
REMARK   18  A    between atoms: _51  and  _52
REMARK   19  A    between atoms: _57  and  _59
REMARK   20  A    between atoms: _59  and  _60
REMARK   21  A    between atoms: _63  and  _65
REMARK   22  A    between atoms: _65  and  _66
REMARK   23  A    between atoms: _65  and  _68
REMARK   24  A    between atoms: _68  and  _69
REMARK   25  A    between atoms: _74  and  _76
REMARK   26  A    between atoms: _76  and  _77
REMARK   27  A    between atoms: _76  and  _79
REMARK   28  A    between atoms: _79  and  _80
REMARK   29  A    between atoms: _83  and  _85
REMARK   30  A    between atoms: _85  and  _86
REMARK   31  A    between atoms: _85  and  _88
REMARK   32  A    between atoms: _88  and  _89
REMARK   33  A    between atoms: _89  and  _90
REMARK   34  A    between atoms: _95  and  _97
REMARK   35  A    between atoms: _97  and  _98
REMARK   36  A    between atoms: _97  and  _100
REMARK   37  A    between atoms: _100  and  _101
REMARK   38  A    between atoms: _107  and  _109
REMARK   39  A    between atoms: _120  and  _123
REMARK   40  A    between atoms: _123  and  _124
REMARK   41  A    between atoms: _132  and  _133
REMARK   42  A    between atoms: _141  and  _143
REMARK   43  A    between atoms: _143  and  _144
REMARK   44  A    between atoms: _143  and  _146
REMARK   45  A    between atoms: _146  and  _147
REMARK   46  A    between atoms: _147  and  _148
REMARK   47  A    between atoms: _151  and  _153
REMARK   48  A    between atoms: _153  and  _154
REMARK   49  A    between atoms: _153  and  _156
REMARK   50  A    between atoms: _156  and  _157
REMARK   51  A    between atoms: _162  and  _164
REMARK   52  A    between atoms: _164  and  _165
REMARK   53  A    between atoms: _164  and  _167
REMARK   54  A    between atoms: _167  and  _168
REMARK   55  A    between atoms: _168  and  _169
REMARK   56  A    between atoms: _172  and  _174
REMARK   57  A    between atoms: _174  and  _175
REMARK   58  A    between atoms: _174  and  _177
REMARK   59  A    between atoms: _177  and  _178
REMARK   60  A    between atoms: _181  and  _183
REMARK   61  A    between atoms: _183  and  _184
REMARK   62  A    between atoms: _183  and  _186
REMARK   63  A    between atoms: _186  and  _187
REMARK   64  A    between atoms: _188  and  ZN_408
REMARK   65  A    between atoms: _192  and  _194
REMARK   66  A    between atoms: _194  and  _195
REMARK   67  A    between atoms: _194  and  _197
REMARK   68  A    between atoms: _197  and  _198
REMARK   69  A    between atoms: _201  and  _203
REMARK   70  A    between atoms: _203  and  _204
REMARK   71  A    between atoms: _203  and  _206
REMARK   72  A    between atoms: _209  and  _211
REMARK   73  A    between atoms: _211  and  _212
REMARK   74  A    between atoms: _211  and  _214
REMARK   75  A    between atoms: _214  and  _215
REMARK   76  A    between atoms: _220  and  _222
REMARK   77  A    between atoms: _222  and  _223
REMARK   78  A    between atoms: _222  and  _225
REMARK   79  A    between atoms: _225  and  _226
REMARK   80  A    between atoms: _232  and  _234
REMARK   81  A    between atoms: _234  and  _235
REMARK   82  A    between atoms: _234  and  _237
REMARK   83  A    between atoms: _240  and  _242
REMARK   84  A    between atoms: _242  and  _243
REMARK   85  A    between atoms: _242  and  _245
REMARK   86  A    between atoms: _245  and  _246
REMARK   87  A    between atoms: _249  and  _251
REMARK   88  A    between atoms: _251  and  _252
REMARK   89  A    between atoms: _255  and  _257
REMARK   90  A    between atoms: _257  and  _258
REMARK   91  A    between atoms: _257  and  _260
REMARK   92  A    between atoms: _263  and  _265
REMARK   93  A    between atoms: _265  and  _266
REMARK   94  A    between atoms: _265  and  _268
REMARK   95  A    between atoms: _268  and  _269
REMARK   96  A    between atoms: _272  and  _274
REMARK   97  A    between atoms: _274  and  _275
REMARK   98  A    between atoms: _277  and  _279
REMARK   99  A    between atoms: _279  and  _280
REMARK  100  A    between atoms: _282  and  _284
REMARK  101  A    between atoms: _284  and  _285
REMARK  102  A    between atoms: _284  and  _287
REMARK  103  A    between atoms: _287  and  _288
REMARK  104  A    between atoms: _290  and  _292
REMARK  105  A    between atoms: _292  and  _293
REMARK  106  A    between atoms: _292  and  _295
REMARK  107  A    between atoms: _295  and  _296
REMARK  108  A    between atoms: _299  and  _301
REMARK  109  A    between atoms: _301  and  _302
REMARK  110  A    between atoms: _301  and  _304
REMARK  111  A    between atoms: _304  and  _305
REMARK  112  A    between atoms: _308  and  _310
REMARK  113  A    between atoms: _310  and  _311
REMARK  114  A    between atoms: _310  and  _313
REMARK  115  A    between atoms: _313  and  _314
REMARK  116  A    between atoms: _318  and  _319
REMARK  117  A    between atoms: _325  and  _326
REMARK  118  A    between atoms: _331  and  _333
REMARK  119  A    between atoms: _333  and  _334
REMARK  120  A    between atoms: _333  and  _336
REMARK  121  A    between atoms: _336  and  _337
REMARK  122  A    between atoms: _340  and  _342
REMARK  123  A    between atoms: _342  and  _343
REMARK  124  A    between atoms: _342  and  _345
REMARK  125  A    between atoms: _345  and  _346
REMARK  126  A    between atoms: _349  and  _351
REMARK  127  A    between atoms: _351  and  _352
REMARK  128  A    between atoms: _351  and  _354
REMARK  129  A    between atoms: _356  and  _358
REMARK  130  A    between atoms: _358  and  _359
REMARK  131  A    between atoms: _358  and  _361
REMARK  132  A    between atoms: _364  and  _366
REMARK  133  A    between atoms: _366  and  _367
REMARK  134  A    between atoms: _366  and  _369
REMARK  135  A    between atoms: _369  and  _370
REMARK  136  A    between atoms: _380  and  _382
REMARK  137  A    between atoms: _382  and  _383
REMARK  138  A    between atoms: _382  and  _385
REMARK  139  A    between atoms: _385  and  _386
REMARK  140  A    between atoms: _391  and  _393
REMARK  141  A    between atoms: _393  and  _394
REMARK  142  A    between atoms: _393  and  _396
REMARK  143  A    between atoms: _396  and  _397
REMARK  144  A    between atoms: _397  and  _398
REMARK  145  A    between atoms: _398  and  _399
REMARK                            x       y       z     vdW  Elec       q    Type
REMARK                         _______ _______ _______ _____ _____    ______ ____
ROOT
ATOM      1  O   HOH     1       1.519   7.877  12.544  0.00  0.00    +0.000 OA
ENDROOT
TORSDOF 0
REMARK  Name = ../refined-set-2016/4ruz/4ruz_pocket.pdb
REMARK  145 active torsions:
REMARK  status: ('A' for Active; 'I' for Inactive)
REMARK    1  A    between atoms: _1  and  _3
REMARK    2  A    between atoms: _3  and  _4
REMARK    3  A    between atoms: _3  and  _6
REMARK    4  A    between atoms: _6  and  _7
REMARK    5  A    between atoms: _17  and  _19
REMARK    6  A    between atoms: _19  and  _20
REMARK    7  A    between atoms: _19  and  _22
REMARK    8  A    between atoms: _22  and  _23
REMARK    9  A    between atoms: _28  and  _29
REMARK   10  A    between atoms: _31  and  _33
REMARK   11  A    between atoms: _33  and  _34
REMARK   12  A    between atoms: _33  and  _36
REMARK   13  A    between atoms: _36  and  _37
REMARK   14  A    between atoms: _40  and  _41
REMARK   15  A    between atoms: _46  and  _48
REMARK   16  A    between atoms: _48  and  _49
REMARK   17  A    between atoms: _48  and  _51
REMARK   18  A    between atoms: _51  and  _52
REMARK   19  A    between atoms: _57  and  _59
REMARK   20  A    between atoms: _59  and  _60
REMARK   21  A    between atoms: _63  and  _65
REMARK   22  A    between atoms: _65  and  _66
REMARK   23  A    between atoms: _65  and  _68
REMARK   24  A    between atoms: _68  and  _69
REMARK   25  A    between atoms: _74  and  _76
REMARK   26  A    between atoms: _76  and  _77
REMARK   27  A    between atoms: _76  and  _79
REMARK   28  A    between atoms: _79  and  _80
REMARK   29  A    between atoms: _83  and  _85
REMARK   30  A    between atoms: _85  and  _86
REMARK   31  A    between atoms: _85  and  _88
REMARK   32  A    between atoms: _88  and  _89
REMARK   33  A    between atoms: _89  and  _90
REMARK   34  A    between atoms: _95  and  _97
REMARK   35  A    between atoms: _97  and  _98
REMARK   36  A    between atoms: _97  and  _100
REMARK   37  A    between atoms: _100  and  _101
REMARK   38  A    between atoms: _107  and  _109
REMARK   39  A    between atoms: _120  and  _123
REMARK   40  A    between atoms: _123  and  _124
REMARK   41  A    between atoms: _132  and  _133
REMARK   42  A    between atoms: _141  and  _143
REMARK   43  A    between atoms: _143  and  _144
REMARK   44  A    between atoms: _143  and  _146
REMARK   45  A    between atoms: _146  and  _147
REMARK   46  A    between atoms: _147  and  _148
REMARK   47  A    between atoms: _151  and  _153
REMARK   48  A    between atoms: _153  and  _154
REMARK   49  A    between atoms: _153  and  _156
REMARK   50  A    between atoms: _156  and  _157
REMARK   51  A    between atoms: _162  and  _164
REMARK   52  A    between atoms: _164  and  _165
REMARK   53  A    between atoms: _164  and  _167
REMARK   54  A    between atoms: _167  and  _168
REMARK   55  A    between atoms: _168  and  _169
REMARK   56  A    between atoms: _172  and  _174
REMARK   57  A    between atoms: _174  and  _175
REMARK   58  A    between atoms: _174  and  _177
REMARK   59  A    between atoms: _177  and  _178
REMARK   60  A    between atoms: _181  and  _183
REMARK   61  A    between atoms: _183  and  _184
REMARK   62  A    between atoms: _183  and  _186
REMARK   63  A    between atoms: _186  and  _187
REMARK   64  A    between atoms: _188  and  ZN_408
REMARK   65  A    between atoms: _192  and  _194
REMARK   66  A    between atoms: _194  and  _195
REMARK   67  A    between atoms: _194  and  _197
REMARK   68  A    between atoms: _197  and  _198
REMARK   69  A    between atoms: _201  and  _203
REMARK   70  A    between atoms: _203  and  _204
REMARK   71  A    between atoms: _203  and  _206
REMARK   72  A    between atoms: _209  and  _211
REMARK   73  A    between atoms: _211  and  _212
REMARK   74  A    between atoms: _211  and  _214
REMARK   75  A    between atoms: _214  and  _215
REMARK   76  A    between atoms: _220  and  _222
REMARK   77  A    between atoms: _222  and  _223
REMARK   78  A    between atoms: _222  and  _225
REMARK   79  A    between atoms: _225  and  _226
REMARK   80  A    between atoms: _232  and  _234
REMARK   81  A    between atoms: _234  and  _235
REMARK   82  A    between atoms: _234  and  _237
REMARK   83  A    between atoms: _240  and  _242
REMARK   84  A    between atoms: _242  and  _243
REMARK   85  A    between atoms: _242  and  _245
REMARK   86  A    between atoms: _245  and  _246
REMARK   87  A    between atoms: _249  and  _251
REMARK   88  A    between atoms: _251  and  _252
REMARK   89  A    between atoms: _255  and  _257
REMARK   90  A    between atoms: _257  and  _258
REMARK   91  A    between atoms: _257  and  _260
REMARK   92  A    between atoms: _263  and  _265
REMARK   93  A    between atoms: _265  and  _266
REMARK   94  A    between atoms: _265  and  _268
REMARK   95  A    between atoms: _268  and  _269
REMARK   96  A    between atoms: _272  and  _274
REMARK   97  A    between atoms: _274  and  _275
REMARK   98  A    between atoms: _277  and  _279
REMARK   99  A    between atoms: _279  and  _280
REMARK  100  A    between atoms: _282  and  _284
REMARK  101  A    between atoms: _284  and  _285
REMARK  102  A    between atoms: _284  and  _287
REMARK  103  A    between atoms: _287  and  _288
REMARK  104  A    between atoms: _290  and  _292
REMARK  105  A    between atoms: _292  and  _293
REMARK  106  A    between atoms: _292  and  _295
REMARK  107  A    between atoms: _295  and  _296
REMARK  108  A    between atoms: _299  and  _301
REMARK  109  A    between atoms: _301  and  _302
REMARK  110  A    between atoms: _301  and  _304
REMARK  111  A    between atoms: _304  and  _305
REMARK  112  A    between atoms: _308  and  _310
REMARK  113  A    between atoms: _310  and  _311
REMARK  114  A    between atoms: _310  and  _313
REMARK  115  A    between atoms: _313  and  _314
REMARK  116  A    between atoms: _318  and  _319
REMARK  117  A    between atoms: _325  and  _326
REMARK  118  A    between atoms: _331  and  _333
REMARK  119  A    between atoms: _333  and  _334
REMARK  120  A    between atoms: _333  and  _336
REMARK  121  A    between atoms: _336  and  _337
REMARK  122  A    between atoms: _340  and  _342
REMARK  123  A    between atoms: _342  and  _343
REMARK  124  A    between atoms: _342  and  _345
REMARK  125  A    between atoms: _345  and  _346
REMARK  126  A    between atoms: _349  and  _351
REMARK  127  A    between atoms: _351  and  _352
REMARK  128  A    between atoms: _351  and  _354
REMARK  129  A    between atoms: _356  and  _358
REMARK  130  A    between atoms: _358  and  _359
REMARK  131  A    between atoms: _358  and  _361
REMARK  132  A    between atoms: _364  and  _366
REMARK  133  A    between atoms: _366  and  _367
REMARK  134  A    between atoms: _366  and  _369
REMARK  135  A    between atoms: _369  and  _370
REMARK  136  A    between atoms: _380  and  _382
REMARK  137  A    between atoms: _382  and  _383
REMARK  138  A    between atoms: _382  and  _385
REMARK  139  A    between atoms: _385  and  _386
REMARK  140  A    between atoms: _391  and  _393
REMARK  141  A    between atoms: _393  and  _394
REMARK  142  A    between atoms: _393  and  _396
REMARK  143  A    between atoms: _396  and  _397
REMARK  144  A    between atoms: _397  and  _398
REMARK  145  A    between atoms: _398  and  _399
REMARK                            x       y       z     vdW  Elec       q    Type
REMARK                         _______ _______ _______ _____ _____    ______ ____
ROOT
ATOM      1  O   HOH     1       1.087   5.127  12.187  0.00  0.00    +0.000 OA
ENDROOT
TORSDOF 0
REMARK  Name = ../refined-set-2016/4ruz/4ruz_pocket.pdb
REMARK  145 active torsions:
REMARK  status: ('A' for Active; 'I' for Inactive)
REMARK    1  A    between atoms: _1  and  _3
REMARK    2  A    between atoms: _3  and  _4
REMARK    3  A    between atoms: _3  and  _6
REMARK    4  A    between atoms: _6  and  _7
REMARK    5  A    between atoms: _17  and  _19
REMARK    6  A    between atoms: _19  and  _20
REMARK    7  A    between atoms: _19  and  _22
REMARK    8  A    between atoms: _22  and  _23
REMARK    9  A    between atoms: _28  and  _29
REMARK   10  A    between atoms: _31  and  _33
REMARK   11  A    between atoms: _33  and  _34
REMARK   12  A    between atoms: _33  and  _36
REMARK   13  A    between atoms: _36  and  _37
REMARK   14  A    between atoms: _40  and  _41
REMARK   15  A    between atoms: _46  and  _48
REMARK   16  A    between atoms: _48  and  _49
REMARK   17  A    between atoms: _48  and  _51
REMARK   18  A    between atoms: _51  and  _52
REMARK   19  A    between atoms: _57  and  _59
REMARK   20  A    between atoms: _59  and  _60
REMARK   21  A    between atoms: _63  and  _65
REMARK   22  A    between atoms: _65  and  _66
REMARK   23  A    between atoms: _65  and  _68
REMARK   24  A    between atoms: _68  and  _69
REMARK   25  A    between atoms: _74  and  _76
REMARK   26  A    between atoms: _76  and  _77
REMARK   27  A    between atoms: _76  and  _79
REMARK   28  A    between atoms: _79  and  _80
REMARK   29  A    between atoms: _83  and  _85
REMARK   30  A    between atoms: _85  and  _86
REMARK   31  A    between atoms: _85  and  _88
REMARK   32  A    between atoms: _88  and  _89
REMARK   33  A    between atoms: _89  and  _90
REMARK   34  A    between atoms: _95  and  _97
REMARK   35  A    between atoms: _97  and  _98
REMARK   36  A    between atoms: _97  and  _100
REMARK   37  A    between atoms: _100  and  _101
REMARK   38  A    between atoms: _107  and  _109
REMARK   39  A    between atoms: _120  and  _123
REMARK   40  A    between atoms: _123  and  _124
REMARK   41  A    between atoms: _132  and  _133
REMARK   42  A    between atoms: _141  and  _143
REMARK   43  A    between atoms: _143  and  _144
REMARK   44  A    between atoms: _143  and  _146
REMARK   45  A    between atoms: _146  and  _147
REMARK   46  A    between atoms: _147  and  _148
REMARK   47  A    between atoms: _151  and  _153
REMARK   48  A    between atoms: _153  and  _154
REMARK   49  A    between atoms: _153  and  _156
REMARK   50  A    between atoms: _156  and  _157
REMARK   51  A    between atoms: _162  and  _164
REMARK   52  A    between atoms: _164  and  _165
REMARK   53  A    between atoms: _164  and  _167
REMARK   54  A    between atoms: _167  and  _168
REMARK   55  A    between atoms: _168  and  _169
REMARK   56  A    between atoms: _172  and  _174
REMARK   57  A    between atoms: _174  and  _175
REMARK   58  A    between atoms: _174  and  _177
REMARK   59  A    between atoms: _177  and  _178
REMARK   60  A    between atoms: _181  and  _183
REMARK   61  A    between atoms: _183  and  _184
REMARK   62  A    between atoms: _183  and  _186
REMARK   63  A    between atoms: _186  and  _187
REMARK   64  A    between atoms: _188  and  ZN_408
REMARK   65  A    between atoms: _192  and  _194
REMARK   66  A    between atoms: _194  and  _195
REMARK   67  A    between atoms: _194  and  _197
REMARK   68  A    between atoms: _197  and  _198
REMARK   69  A    between atoms: _201  and  _203
REMARK   70  A    between atoms: _203  and  _204
REMARK   71  A    between atoms: _203  and  _206
REMARK   72  A    between atoms: _209  and  _211
REMARK   73  A    between atoms: _211  and  _212
REMARK   74  A    between atoms: _211  and  _214
REMARK   75  A    between atoms: _214  and  _215
REMARK   76  A    between atoms: _220  and  _222
REMARK   77  A    between atoms: _222  and  _223
REMARK   78  A    between atoms: _222  and  _225
REMARK   79  A    between atoms: _225  and  _226
REMARK   80  A    between atoms: _232  and  _234
REMARK   81  A    between atoms: _234  and  _235
REMARK   82  A    between atoms: _234  and  _237
REMARK   83  A    between atoms: _240  and  _242
REMARK   84  A    between atoms: _242  and  _243
REMARK   85  A    between atoms: _242  and  _245
REMARK   86  A    between atoms: _245  and  _246
REMARK   87  A    between atoms: _249  and  _251
REMARK   88  A    between atoms: _251  and  _252
REMARK   89  A    between atoms: _255  and  _257
REMARK   90  A    between atoms: _257  and  _258
REMARK   91  A    between atoms: _257  and  _260
REMARK   92  A    between atoms: _263  and  _265
REMARK   93  A    between atoms: _265  and  _266
REMARK   94  A    between atoms: _265  and  _268
REMARK   95  A    between atoms: _268  and  _269
REMARK   96  A    between atoms: _272  and  _274
REMARK   97  A    between atoms: _274  and  _275
REMARK   98  A    between atoms: _277  and  _279
REMARK   99  A    between atoms: _279  and  _280
REMARK  100  A    between atoms: _282  and  _284
REMARK  101  A    between atoms: _284  and  _285
REMARK  102  A    between atoms: _284  and  _287
REMARK  103  A    between atoms: _287  and  _288
REMARK  104  A    between atoms: _290  and  _292
REMARK  105  A    between atoms: _292  and  _293
REMARK  106  A    between atoms: _292  and  _295
REMARK  107  A    between atoms: _295  and  _296
REMARK  108  A    between atoms: _299  and  _301
REMARK  109  A    between atoms: _301  and  _302
REMARK  110  A    between atoms: _301  and  _304
REMARK  111  A    between atoms: _304  and  _305
REMARK  112  A    between atoms: _308  and  _310
REMARK  113  A    between atoms: _310  and  _311
REMARK  114  A    between atoms: _310  and  _313
REMARK  115  A    between atoms: _313  and  _314
REMARK  116  A    between atoms: _318  and  _319
REMARK  117  A    between atoms: _325  and  _326
REMARK  118  A    between atoms: _331  and  _333
REMARK  119  A    between atoms: _333  and  _334
REMARK  120  A    between atoms: _333  and  _336
REMARK  121  A    between atoms: _336  and  _337
REMARK  122  A    between atoms: _340  and  _342
REMARK  123  A    between atoms: _342  and  _343
REMARK  124  A    between atoms: _342  and  _345
REMARK  125  A    between atoms: _345  and  _346
REMARK  126  A    between atoms: _349  and  _351
REMARK  127  A    between atoms: _351  and  _352
REMARK  128  A    between atoms: _351  and  _354
REMARK  129  A    between atoms: _356  and  _358
REMARK  130  A    between atoms: _358  and  _359
REMARK  131  A    between atoms: _358  and  _361
REMARK  132  A    between atoms: _364  and  _366
REMARK  133  A    between atoms: _366  and  _367
REMARK  134  A    between atoms: _366  and  _369
REMARK  135  A    between atoms: _369  and  _370
REMARK  136  A    between atoms: _380  and  _382
REMARK  137  A    between atoms: _382  and  _383
REMARK  138  A    between atoms: _382  and  _385
REMARK  139  A    between atoms: _385  and  _386
REMARK  140  A    between atoms: _391  and  _393
REMARK  141  A    between atoms: _393  and  _394
REMARK  142  A    between atoms: _393  and  _396
REMARK  143  A    between atoms: _396  and  _397
REMARK  144  A    between atoms: _397  and  _398
REMARK  145  A    between atoms: _398  and  _399
REMARK                            x       y       z     vdW  Elec       q    Type
REMARK                         _______ _______ _______ _____ _____    ______ ____
ROOT
ATOM      1  O   HOH     1      -0.564  14.103  15.937  0.00  0.00    +0.000 OA
ENDROOT
TORSDOF 0
REMARK  Name = ../refined-set-2016/4ruz/4ruz_pocket.pdb
REMARK  145 active torsions:
REMARK  status: ('A' for Active; 'I' for Inactive)
REMARK    1  A    between atoms: _1  and  _3
REMARK    2  A    between atoms: _3  and  _4
REMARK    3  A    between atoms: _3  and  _6
REMARK    4  A    between atoms: _6  and  _7
REMARK    5  A    between atoms: _17  and  _19
REMARK    6  A    between atoms: _19  and  _20
REMARK    7  A    between atoms: _19  and  _22
REMARK    8  A    between atoms: _22  and  _23
REMARK    9  A    between atoms: _28  and  _29
REMARK   10  A    between atoms: _31  and  _33
REMARK   11  A    between atoms: _33  and  _34
REMARK   12  A    between atoms: _33  and  _36
REMARK   13  A    between atoms: _36  and  _37
REMARK   14  A    between atoms: _40  and  _41
REMARK   15  A    between atoms: _46  and  _48
REMARK   16  A    between atoms: _48  and  _49
REMARK   17  A    between atoms: _48  and  _51
REMARK   18  A    between atoms: _51  and  _52
REMARK   19  A    between atoms: _57  and  _59
REMARK   20  A    between atoms: _59  and  _60
REMARK   21  A    between atoms: _63  and  _65
REMARK   22  A    between atoms: _65  and  _66
REMARK   23  A    between atoms: _65  and  _68
REMARK   24  A    between atoms: _68  and  _69
REMARK   25  A    between atoms: _74  and  _76
REMARK   26  A    between atoms: _76  and  _77
REMARK   27  A    between atoms: _76  and  _79
REMARK   28  A    between atoms: _79  and  _80
REMARK   29  A    between atoms: _83  and  _85
REMARK   30  A    between atoms: _85  and  _86
REMARK   31  A    between atoms: _85  and  _88
REMARK   32  A    between atoms: _88  and  _89
REMARK   33  A    between atoms: _89  and  _90
REMARK   34  A    between atoms: _95  and  _97
REMARK   35  A    between atoms: _97  and  _98
REMARK   36  A    between atoms: _97  and  _100
REMARK   37  A    between atoms: _100  and  _101
REMARK   38  A    between atoms: _107  and  _109
REMARK   39  A    between atoms: _120  and  _123
REMARK   40  A    between atoms: _123  and  _124
REMARK   41  A    between atoms: _132  and  _133
REMARK   42  A    between atoms: _141  and  _143
REMARK   43  A    between atoms: _143  and  _144
REMARK   44  A    between atoms: _143  and  _146
REMARK   45  A    between atoms: _146  and  _147
REMARK   46  A    between atoms: _147  and  _148
REMARK   47  A    between atoms: _151  and  _153
REMARK   48  A    between atoms: _153  and  _154
REMARK   49  A    between atoms: _153  and  _156
REMARK   50  A    between atoms: _156  and  _157
REMARK   51  A    between atoms: _162  and  _164
REMARK   52  A    between atoms: _164  and  _165
REMARK   53  A    between atoms: _164  and  _167
REMARK   54  A    between atoms: _167  and  _168
REMARK   55  A    between atoms: _168  and  _169
REMARK   56  A    between atoms: _172  and  _174
REMARK   57  A    between atoms: _174  and  _175
REMARK   58  A    between atoms: _174  and  _177
REMARK   59  A    between atoms: _177  and  _178
REMARK   60  A    between atoms: _181  and  _183
REMARK   61  A    between atoms: _183  and  _184
REMARK   62  A    between atoms: _183  and  _186
REMARK   63  A    between atoms: _186  and  _187
REMARK   64  A    between atoms: _188  and  ZN_408
REMARK   65  A    between atoms: _192  and  _194
REMARK   66  A    between atoms: _194  and  _195
REMARK   67  A    between atoms: _194  and  _197
REMARK   68  A    between atoms: _197  and  _198
REMARK   69  A    between atoms: _201  and  _203
REMARK   70  A    between atoms: _203  and  _204
REMARK   71  A    between atoms: _203  and  _206
REMARK   72  A    between atoms: _209  and  _211
REMARK   73  A    between atoms: _211  and  _212
REMARK   74  A    between atoms: _211  and  _214
REMARK   75  A    between atoms: _214  and  _215
REMARK   76  A    between atoms: _220  and  _222
REMARK   77  A    between atoms: _222  and  _223
REMARK   78  A    between atoms: _222  and  _225
REMARK   79  A    between atoms: _225  and  _226
REMARK   80  A    between atoms: _232  and  _234
REMARK   81  A    between atoms: _234  and  _235
REMARK   82  A    between atoms: _234  and  _237
REMARK   83  A    between atoms: _240  and  _242
REMARK   84  A    between atoms: _242  and  _243
REMARK   85  A    between atoms: _242  and  _245
REMARK   86  A    between atoms: _245  and  _246
REMARK   87  A    between atoms: _249  and  _251
REMARK   88  A    between atoms: _251  and  _252
REMARK   89  A    between atoms: _255  and  _257
REMARK   90  A    between atoms: _257  and  _258
REMARK   91  A    between atoms: _257  and  _260
REMARK   92  A    between atoms: _263  and  _265
REMARK   93  A    between atoms: _265  and  _266
REMARK   94  A    between atoms: _265  and  _268
REMARK   95  A    between atoms: _268  and  _269
REMARK   96  A    between atoms: _272  and  _274
REMARK   97  A    between atoms: _274  and  _275
REMARK   98  A    between atoms: _277  and  _279
REMARK   99  A    between atoms: _279  and  _280
REMARK  100  A    between atoms: _282  and  _284
REMARK  101  A    between atoms: _284  and  _285
REMARK  102  A    between atoms: _284  and  _287
REMARK  103  A    between atoms: _287  and  _288
REMARK  104  A    between atoms: _290  and  _292
REMARK  105  A    between atoms: _292  and  _293
REMARK  106  A    between atoms: _292  and  _295
REMARK  107  A    between atoms: _295  and  _296
REMARK  108  A    between atoms: _299  and  _301
REMARK  109  A    between atoms: _301  and  _302
REMARK  110  A    between atoms: _301  and  _304
REMARK  111  A    between atoms: _304  and  _305
REMARK  112  A    between atoms: _308  and  _310
REMARK  113  A    between atoms: _310  and  _311
REMARK  114  A    between atoms: _310  and  _313
REMARK  115  A    between atoms: _313  and  _314
REMARK  116  A    between atoms: _318  and  _319
REMARK  117  A    between atoms: _325  and  _326
REMARK  118  A    between atoms: _331  and  _333
REMARK  119  A    between atoms: _333  and  _334
REMARK  120  A    between atoms: _333  and  _336
REMARK  121  A    between atoms: _336  and  _337
REMARK  122  A    between atoms: _340  and  _342
REMARK  123  A    between atoms: _342  and  _343
REMARK  124  A    between atoms: _342  and  _345
REMARK  125  A    between atoms: _345  and  _346
REMARK  126  A    between atoms: _349  and  _351
REMARK  127  A    between atoms: _351  and  _352
REMARK  128  A    between atoms: _351  and  _354
REMARK  129  A    between atoms: _356  and  _358
REMARK  130  A    between atoms: _358  and  _359
REMARK  131  A    between atoms: _358  and  _361
REMARK  132  A    between atoms: _364  and  _366
REMARK  133  A    between atoms: _366  and  _367
REMARK  134  A    between atoms: _366  and  _369
REMARK  135  A    between atoms: _369  and  _370
REMARK  136  A    between atoms: _380  and  _382
REMARK  137  A    between atoms: _382  and  _383
REMARK  138  A    between atoms: _382  and  _385
REMARK  139  A    between atoms: _385  and  _386
REMARK  140  A    between atoms: _391  and  _393
REMARK  141  A    between atoms: _393  and  _394
REMARK  142  A    between atoms: _393  and  _396
REMARK  143  A    between atoms: _396  and  _397
REMARK  144  A    between atoms: _397  and  _398
REMARK  145  A    between atoms: _398  and  _399
REMARK                            x       y       z     vdW  Elec       q    Type
REMARK                         _______ _______ _______ _____ _____    ______ ____
ROOT
ATOM      1  O   HOH     1      -3.260   5.309   9.642  0.00  0.00    +0.000 OA
ENDROOT
TORSDOF 0
