REMARK  Name = ../refined-set-2016/1d4h/1d4h_pocket.pdb
REMARK  248 active torsions:
REMARK  status: ('A' for Active; 'I' for Inactive)
REMARK    1  A    between atoms: _1  and  _3
REMARK    2  A    between atoms: _3  and  _4
REMARK    3  A    between atoms: _3  and  _6
REMARK    4  A    between atoms: _6  and  _7
REMARK    5  A    between atoms: _7  and  _8
REMARK    6  A    between atoms: _8  and  _9
REMARK    7  A    between atoms: _18  and  _20
REMARK    8  A    between atoms: _20  and  _21
REMARK    9  A    between atoms: _20  and  _23
REMARK   10  A    between atoms: _23  and  _24
REMARK   11  A    between atoms: _27  and  _29
REMARK   12  A    between atoms: _29  and  _30
REMARK   13  A    between atoms: _29  and  _32
REMARK   14  A    between atoms: _32  and  _33
REMARK   15  A    between atoms: _36  and  _38
REMARK   16  A    between atoms: _38  and  _39
REMARK   17  A    between atoms: _38  and  _41
REMARK   18  A    between atoms: _41  and  _42
REMARK   19  A    between atoms: _45  and  _47
REMARK   20  A    between atoms: _47  and  _48
REMARK   21  A    between atoms: _47  and  _50
REMARK   22  A    between atoms: _50  and  _51
REMARK   23  A    between atoms: _54  and  _56
REMARK   24  A    between atoms: _56  and  _57
REMARK   25  A    between atoms: _56  and  _59
REMARK   26  A    between atoms: _59  and  _60
REMARK   27  A    between atoms: _63  and  _65
REMARK   28  A    between atoms: _65  and  _66
REMARK   29  A    between atoms: _68  and  _70
REMARK   30  A    between atoms: _70  and  _71
REMARK   31  A    between atoms: _74  and  _76
REMARK   32  A    between atoms: _76  and  _77
REMARK   33  A    between atoms: _76  and  _79
REMARK   34  A    between atoms: _79  and  _80
REMARK   35  A    between atoms: _83  and  _85
REMARK   36  A    between atoms: _85  and  _86
REMARK   37  A    between atoms: _85  and  _88
REMARK   38  A    between atoms: _88  and  _89
REMARK   39  A    between atoms: _92  and  _94
REMARK   40  A    between atoms: _94  and  _95
REMARK   41  A    between atoms: _94  and  _97
REMARK   42  A    between atoms: _97  and  _98
REMARK   43  A    between atoms: _101  and  _103
REMARK   44  A    between atoms: _103  and  _104
REMARK   45  A    between atoms: _103  and  _106
REMARK   46  A    between atoms: _109  and  _111
REMARK   47  A    between atoms: _111  and  _112
REMARK   48  A    between atoms: _111  and  _114
REMARK   49  A    between atoms: _114  and  _115
REMARK   50  A    between atoms: _118  and  _120
REMARK   51  A    between atoms: _120  and  _121
REMARK   52  A    between atoms: _120  and  _123
REMARK   53  A    between atoms: _123  and  _124
REMARK   54  A    between atoms: _124  and  _125
REMARK   55  A    between atoms: _125  and  _126
REMARK   56  A    between atoms: _126  and  _127
REMARK   57  A    between atoms: _131  and  _133
REMARK   58  A    between atoms: _133  and  _134
REMARK   59  A    between atoms: _133  and  _136
REMARK   60  A    between atoms: _136  and  _137
REMARK   61  A    between atoms: _137  and  _138
REMARK   62  A    between atoms: _140  and  _142
REMARK   63  A    between atoms: _142  and  _143
REMARK   64  A    between atoms: _142  and  _145
REMARK   65  A    between atoms: _145  and  _146
REMARK   66  A    between atoms: _149  and  _151
REMARK   67  A    between atoms: _151  and  _152
REMARK   68  A    between atoms: _154  and  _156
REMARK   69  A    between atoms: _156  and  _157
REMARK   70  A    between atoms: _159  and  _161
REMARK   71  A    between atoms: _161  and  _162
REMARK   72  A    between atoms: _161  and  _164
REMARK   73  A    between atoms: _164  and  _165
REMARK   74  A    between atoms: _168  and  _170
REMARK   75  A    between atoms: _170  and  _171
REMARK   76  A    between atoms: _173  and  _175
REMARK   77  A    between atoms: _175  and  _176
REMARK   78  A    between atoms: _178  and  _180
REMARK   79  A    between atoms: _180  and  _181
REMARK   80  A    between atoms: _180  and  _183
REMARK   81  A    between atoms: _183  and  _184
REMARK   82  A    between atoms: _190  and  _192
REMARK   83  A    between atoms: _192  and  _193
REMARK   84  A    between atoms: _192  and  _195
REMARK   85  A    between atoms: _195  and  _196
REMARK   86  A    between atoms: _199  and  _201
REMARK   87  A    between atoms: _201  and  _202
REMARK   88  A    between atoms: _201  and  _204
REMARK   89  A    between atoms: _207  and  _209
REMARK   90  A    between atoms: _209  and  _210
REMARK   91  A    between atoms: _209  and  _212
REMARK   92  A    between atoms: _212  and  _213
REMARK   93  A    between atoms: _216  and  _218
REMARK   94  A    between atoms: _218  and  _219
REMARK   95  A    between atoms: _218  and  _221
REMARK   96  A    between atoms: _221  and  _222
REMARK   97  A    between atoms: _226  and  _227
REMARK   98  A    between atoms: _232  and  _234
REMARK   99  A    between atoms: _234  and  _235
REMARK  100  A    between atoms: _234  and  _237
REMARK  101  A    between atoms: _240  and  _242
REMARK  102  A    between atoms: _242  and  _243
REMARK  103  A    between atoms: _242  and  _245
REMARK  104  A    between atoms: _245  and  _246
REMARK  105  A    between atoms: _251  and  _253
REMARK  106  A    between atoms: _253  and  _254
REMARK  107  A    between atoms: _253  and  _256
REMARK  108  A    between atoms: _256  and  _257
REMARK  109  A    between atoms: _260  and  _262
REMARK  110  A    between atoms: _262  and  _263
REMARK  111  A    between atoms: _262  and  _265
REMARK  112  A    between atoms: _265  and  _266
REMARK  113  A    between atoms: _269  and  _271
REMARK  114  A    between atoms: _271  and  _272
REMARK  115  A    between atoms: _274  and  _276
REMARK  116  A    between atoms: _276  and  _277
REMARK  117  A    between atoms: _276  and  _279
REMARK  118  A    between atoms: _279  and  _280
REMARK  119  A    between atoms: _280  and  _281
REMARK  120  A    between atoms: _281  and  _282
REMARK  121  A    between atoms: _291  and  _293
REMARK  122  A    between atoms: _293  and  _294
REMARK  123  A    between atoms: _293  and  _296
REMARK  124  A    between atoms: _296  and  _297
REMARK  125  A    between atoms: _302  and  _304
REMARK  126  A    between atoms: _304  and  _305
REMARK  127  A    between atoms: _304  and  _307
REMARK  128  A    between atoms: _307  and  _308
REMARK  129  A    between atoms: _308  and  _309
REMARK  130  A    between atoms: _309  and  _310
REMARK  131  A    between atoms: _319  and  _321
REMARK  132  A    between atoms: _321  and  _322
REMARK  133  A    between atoms: _321  and  _324
REMARK  134  A    between atoms: _324  and  _325
REMARK  135  A    between atoms: _328  and  _330
REMARK  136  A    between atoms: _330  and  _331
REMARK  137  A    between atoms: _330  and  _333
REMARK  138  A    between atoms: _333  and  _334
REMARK  139  A    between atoms: _337  and  _339
REMARK  140  A    between atoms: _339  and  _340
REMARK  141  A    between atoms: _339  and  _342
REMARK  142  A    between atoms: _342  and  _343
REMARK  143  A    between atoms: _346  and  _348
REMARK  144  A    between atoms: _348  and  _349
REMARK  145  A    between atoms: _348  and  _351
REMARK  146  A    between atoms: _351  and  _352
REMARK  147  A    between atoms: _355  and  _357
REMARK  148  A    between atoms: _357  and  _358
REMARK  149  A    between atoms: _357  and  _360
REMARK  150  A    between atoms: _360  and  _361
REMARK  151  A    between atoms: _364  and  _366
REMARK  152  A    between atoms: _366  and  _367
REMARK  153  A    between atoms: _369  and  _371
REMARK  154  A    between atoms: _371  and  _372
REMARK  155  A    between atoms: _375  and  _377
REMARK  156  A    between atoms: _377  and  _378
REMARK  157  A    between atoms: _377  and  _380
REMARK  158  A    between atoms: _380  and  _381
REMARK  159  A    between atoms: _384  and  _386
REMARK  160  A    between atoms: _386  and  _387
REMARK  161  A    between atoms: _386  and  _389
REMARK  162  A    between atoms: _389  and  _390
REMARK  163  A    between atoms: _393  and  _395
REMARK  164  A    between atoms: _395  and  _396
REMARK  165  A    between atoms: _395  and  _398
REMARK  166  A    between atoms: _398  and  _399
REMARK  167  A    between atoms: _402  and  _404
REMARK  168  A    between atoms: _404  and  _405
REMARK  169  A    between atoms: _404  and  _407
REMARK  170  A    between atoms: _410  and  _412
REMARK  171  A    between atoms: _412  and  _413
REMARK  172  A    between atoms: _412  and  _415
REMARK  173  A    between atoms: _415  and  _416
REMARK  174  A    between atoms: _419  and  _421
REMARK  175  A    between atoms: _421  and  _422
REMARK  176  A    between atoms: _421  and  _424
REMARK  177  A    between atoms: _424  and  _425
REMARK  178  A    between atoms: _425  and  _426
REMARK  179  A    between atoms: _426  and  _427
REMARK  180  A    between atoms: _427  and  _428
REMARK  181  A    between atoms: _432  and  _434
REMARK  182  A    between atoms: _434  and  _435
REMARK  183  A    between atoms: _434  and  _437
REMARK  184  A    between atoms: _437  and  _438
REMARK  185  A    between atoms: _438  and  _439
REMARK  186  A    between atoms: _441  and  _443
REMARK  187  A    between atoms: _443  and  _444
REMARK  188  A    between atoms: _443  and  _446
REMARK  189  A    between atoms: _446  and  _447
REMARK  190  A    between atoms: _450  and  _452
REMARK  191  A    between atoms: _452  and  _453
REMARK  192  A    between atoms: _455  and  _457
REMARK  193  A    between atoms: _457  and  _458
REMARK  194  A    between atoms: _460  and  _462
REMARK  195  A    between atoms: _462  and  _463
REMARK  196  A    between atoms: _462  and  _465
REMARK  197  A    between atoms: _465  and  _466
REMARK  198  A    between atoms: _469  and  _471
REMARK  199  A    between atoms: _471  and  _472
REMARK  200  A    between atoms: _474  and  _476
REMARK  201  A    between atoms: _476  and  _477
REMARK  202  A    between atoms: _479  and  _481
REMARK  203  A    between atoms: _481  and  _482
REMARK  204  A    between atoms: _481  and  _484
REMARK  205  A    between atoms: _484  and  _485
REMARK  206  A    between atoms: _491  and  _493
REMARK  207  A    between atoms: _493  and  _494
REMARK  208  A    between atoms: _493  and  _496
REMARK  209  A    between atoms: _496  and  _497
REMARK  210  A    between atoms: _500  and  _502
REMARK  211  A    between atoms: _502  and  _503
REMARK  212  A    between atoms: _502  and  _505
REMARK  213  A    between atoms: _508  and  _510
REMARK  214  A    between atoms: _510  and  _511
REMARK  215  A    between atoms: _510  and  _513
REMARK  216  A    between atoms: _513  and  _514
REMARK  217  A    between atoms: _517  and  _519
REMARK  218  A    between atoms: _519  and  _520
REMARK  219  A    between atoms: _519  and  _522
REMARK  220  A    between atoms: _522  and  _523
REMARK  221  A    between atoms: _527  and  _528
REMARK  222  A    between atoms: _533  and  _535
REMARK  223  A    between atoms: _535  and  _536
REMARK  224  A    between atoms: _535  and  _538
REMARK  225  A    between atoms: _541  and  _543
REMARK  226  A    between atoms: _543  and  _544
REMARK  227  A    between atoms: _543  and  _546
REMARK  228  A    between atoms: _546  and  _547
REMARK  229  A    between atoms: _552  and  _554
REMARK  230  A    between atoms: _554  and  _555
REMARK  231  A    between atoms: _554  and  _557
REMARK  232  A    between atoms: _557  and  _558
REMARK  233  A    between atoms: _561  and  _563
REMARK  234  A    between atoms: _563  and  _564
REMARK  235  A    between atoms: _563  and  _566
REMARK  236  A    between atoms: _566  and  _567
REMARK  237  A    between atoms: _570  and  _572
REMARK  238  A    between atoms: _572  and  _573
REMARK  239  A    between atoms: _575  and  _577
REMARK  240  A    between atoms: _577  and  _578
REMARK  241  A    between atoms: _577  and  _580
REMARK  242  A    between atoms: _580  and  _581
REMARK  243  A    between atoms: _581  and  _582
REMARK  244  A    between atoms: _582  and  _583
REMARK  245  A    between atoms: _592  and  _594
REMARK  246  A    between atoms: _594  and  _595
REMARK  247  A    between atoms: _594  and  _597
REMARK  248  A    between atoms: _597  and  _598
REMARK                            x       y       z     vdW  Elec       q    Type
REMARK                         _______ _______ _______ _____ _____    ______ ____
ROOT
ATOM      1  NE  ARG A   1      22.766  20.751   7.798  0.00  0.00    -0.265 N 
ATOM      2  CZ  ARG A   1      22.002  20.005   8.590  0.00  0.00    +0.342 C 
ATOM      3  NH2 ARG A   1      21.921  20.271   9.891  0.00  0.00    -0.292 N 
ATOM      4 HH21 ARG A   1      21.322  19.684  10.505  0.00  0.00    +0.255 HD
ATOM      5 HH22 ARG A   1      22.457  21.066  10.294  0.00  0.00    +0.255 HD
ATOM      6  NH1 ARG A   1      21.312  18.994   8.080  0.00  0.00    -0.292 N 
ATOM      7 HH11 ARG A   1      20.714  18.409   8.697  0.00  0.00    +0.255 HD
ATOM      8 HH12 ARG A   1      21.369  18.786   7.063  0.00  0.00    +0.255 HD
ATOM      9  HE  ARG A   1      22.800  20.507   6.788  0.00  0.00    +0.259 HD
ENDROOT
BRANCH   1  10
ATOM     10  CD  ARG A   1      23.560  21.889   8.251  0.00  0.00    +0.174 C 
BRANCH  10  11
ATOM     11  CG  ARG A   1      24.259  22.573   7.091  0.00  0.00    +0.045 C 
BRANCH  11  12
ATOM     12  CB  ARG A   1      24.861  23.897   7.511  0.00  0.00    +0.029 C 
BRANCH  12  13
ATOM     13  CA  ARG A   1      25.499  24.674   6.362  0.00  0.00    +0.133 C 
BRANCH  13  14
ATOM     14  N   ARG A   1      26.733  24.029   5.923  0.00  0.00    -0.239 NA
ATOM     15  H   ARG A   1      27.051  23.156   6.390  0.00  0.00    +0.142 HD
ENDBRANCH  13  14
BRANCH  13  16
ATOM     16  C   ARG A   1      25.841  26.081   6.824  0.00  0.00    +0.224 C 
ATOM     17  O   ARG A   1      26.831  26.284   7.531  0.00  0.00    -0.287 OA
ENDBRANCH  13  16
ENDBRANCH  12  13
ENDBRANCH  11  12
ENDBRANCH  10  11
ENDBRANCH   1  10
TORSDOF 6
REMARK  Name = ../refined-set-2016/1d4h/1d4h_pocket.pdb
REMARK  248 active torsions:
REMARK  status: ('A' for Active; 'I' for Inactive)
REMARK    1  A    between atoms: _1  and  _3
REMARK    2  A    between atoms: _3  and  _4
REMARK    3  A    between atoms: _3  and  _6
REMARK    4  A    between atoms: _6  and  _7
REMARK    5  A    between atoms: _7  and  _8
REMARK    6  A    between atoms: _8  and  _9
REMARK    7  A    between atoms: _18  and  _20
REMARK    8  A    between atoms: _20  and  _21
REMARK    9  A    between atoms: _20  and  _23
REMARK   10  A    between atoms: _23  and  _24
REMARK   11  A    between atoms: _27  and  _29
REMARK   12  A    between atoms: _29  and  _30
REMARK   13  A    between atoms: _29  and  _32
REMARK   14  A    between atoms: _32  and  _33
REMARK   15  A    between atoms: _36  and  _38
REMARK   16  A    between atoms: _38  and  _39
REMARK   17  A    between atoms: _38  and  _41
REMARK   18  A    between atoms: _41  and  _42
REMARK   19  A    between atoms: _45  and  _47
REMARK   20  A    between atoms: _47  and  _48
REMARK   21  A    between atoms: _47  and  _50
REMARK   22  A    between atoms: _50  and  _51
REMARK   23  A    between atoms: _54  and  _56
REMARK   24  A    between atoms: _56  and  _57
REMARK   25  A    between atoms: _56  and  _59
REMARK   26  A    between atoms: _59  and  _60
REMARK   27  A    between atoms: _63  and  _65
REMARK   28  A    between atoms: _65  and  _66
REMARK   29  A    between atoms: _68  and  _70
REMARK   30  A    between atoms: _70  and  _71
REMARK   31  A    between atoms: _74  and  _76
REMARK   32  A    between atoms: _76  and  _77
REMARK   33  A    between atoms: _76  and  _79
REMARK   34  A    between atoms: _79  and  _80
REMARK   35  A    between atoms: _83  and  _85
REMARK   36  A    between atoms: _85  and  _86
REMARK   37  A    between atoms: _85  and  _88
REMARK   38  A    between atoms: _88  and  _89
REMARK   39  A    between atoms: _92  and  _94
REMARK   40  A    between atoms: _94  and  _95
REMARK   41  A    between atoms: _94  and  _97
REMARK   42  A    between atoms: _97  and  _98
REMARK   43  A    between atoms: _101  and  _103
REMARK   44  A    between atoms: _103  and  _104
REMARK   45  A    between atoms: _103  and  _106
REMARK   46  A    between atoms: _109  and  _111
REMARK   47  A    between atoms: _111  and  _112
REMARK   48  A    between atoms: _111  and  _114
REMARK   49  A    between atoms: _114  and  _115
REMARK   50  A    between atoms: _118  and  _120
REMARK   51  A    between atoms: _120  and  _121
REMARK   52  A    between atoms: _120  and  _123
REMARK   53  A    between atoms: _123  and  _124
REMARK   54  A    between atoms: _124  and  _125
REMARK   55  A    between atoms: _125  and  _126
REMARK   56  A    between atoms: _126  and  _127
REMARK   57  A    between atoms: _131  and  _133
REMARK   58  A    between atoms: _133  and  _134
REMARK   59  A    between atoms: _133  and  _136
REMARK   60  A    between atoms: _136  and  _137
REMARK   61  A    between atoms: _137  and  _138
REMARK   62  A    between atoms: _140  and  _142
REMARK   63  A    between atoms: _142  and  _143
REMARK   64  A    between atoms: _142  and  _145
REMARK   65  A    between atoms: _145  and  _146
REMARK   66  A    between atoms: _149  and  _151
REMARK   67  A    between atoms: _151  and  _152
REMARK   68  A    between atoms: _154  and  _156
REMARK   69  A    between atoms: _156  and  _157
REMARK   70  A    between atoms: _159  and  _161
REMARK   71  A    between atoms: _161  and  _162
REMARK   72  A    between atoms: _161  and  _164
REMARK   73  A    between atoms: _164  and  _165
REMARK   74  A    between atoms: _168  and  _170
REMARK   75  A    between atoms: _170  and  _171
REMARK   76  A    between atoms: _173  and  _175
REMARK   77  A    between atoms: _175  and  _176
REMARK   78  A    between atoms: _178  and  _180
REMARK   79  A    between atoms: _180  and  _181
REMARK   80  A    between atoms: _180  and  _183
REMARK   81  A    between atoms: _183  and  _184
REMARK   82  A    between atoms: _190  and  _192
REMARK   83  A    between atoms: _192  and  _193
REMARK   84  A    between atoms: _192  and  _195
REMARK   85  A    between atoms: _195  and  _196
REMARK   86  A    between atoms: _199  and  _201
REMARK   87  A    between atoms: _201  and  _202
REMARK   88  A    between atoms: _201  and  _204
REMARK   89  A    between atoms: _207  and  _209
REMARK   90  A    between atoms: _209  and  _210
REMARK   91  A    between atoms: _209  and  _212
REMARK   92  A    between atoms: _212  and  _213
REMARK   93  A    between atoms: _216  and  _218
REMARK   94  A    between atoms: _218  and  _219
REMARK   95  A    between atoms: _218  and  _221
REMARK   96  A    between atoms: _221  and  _222
REMARK   97  A    between atoms: _226  and  _227
REMARK   98  A    between atoms: _232  and  _234
REMARK   99  A    between atoms: _234  and  _235
REMARK  100  A    between atoms: _234  and  _237
REMARK  101  A    between atoms: _240  and  _242
REMARK  102  A    between atoms: _242  and  _243
REMARK  103  A    between atoms: _242  and  _245
REMARK  104  A    between atoms: _245  and  _246
REMARK  105  A    between atoms: _251  and  _253
REMARK  106  A    between atoms: _253  and  _254
REMARK  107  A    between atoms: _253  and  _256
REMARK  108  A    between atoms: _256  and  _257
REMARK  109  A    between atoms: _260  and  _262
REMARK  110  A    between atoms: _262  and  _263
REMARK  111  A    between atoms: _262  and  _265
REMARK  112  A    between atoms: _265  and  _266
REMARK  113  A    between atoms: _269  and  _271
REMARK  114  A    between atoms: _271  and  _272
REMARK  115  A    between atoms: _274  and  _276
REMARK  116  A    between atoms: _276  and  _277
REMARK  117  A    between atoms: _276  and  _279
REMARK  118  A    between atoms: _279  and  _280
REMARK  119  A    between atoms: _280  and  _281
REMARK  120  A    between atoms: _281  and  _282
REMARK  121  A    between atoms: _291  and  _293
REMARK  122  A    between atoms: _293  and  _294
REMARK  123  A    between atoms: _293  and  _296
REMARK  124  A    between atoms: _296  and  _297
REMARK  125  A    between atoms: _302  and  _304
REMARK  126  A    between atoms: _304  and  _305
REMARK  127  A    between atoms: _304  and  _307
REMARK  128  A    between atoms: _307  and  _308
REMARK  129  A    between atoms: _308  and  _309
REMARK  130  A    between atoms: _309  and  _310
REMARK  131  A    between atoms: _319  and  _321
REMARK  132  A    between atoms: _321  and  _322
REMARK  133  A    between atoms: _321  and  _324
REMARK  134  A    between atoms: _324  and  _325
REMARK  135  A    between atoms: _328  and  _330
REMARK  136  A    between atoms: _330  and  _331
REMARK  137  A    between atoms: _330  and  _333
REMARK  138  A    between atoms: _333  and  _334
REMARK  139  A    between atoms: _337  and  _339
REMARK  140  A    between atoms: _339  and  _340
REMARK  141  A    between atoms: _339  and  _342
REMARK  142  A    between atoms: _342  and  _343
REMARK  143  A    between atoms: _346  and  _348
REMARK  144  A    between atoms: _348  and  _349
REMARK  145  A    between atoms: _348  and  _351
REMARK  146  A    between atoms: _351  and  _352
REMARK  147  A    between atoms: _355  and  _357
REMARK  148  A    between atoms: _357  and  _358
REMARK  149  A    between atoms: _357  and  _360
REMARK  150  A    between atoms: _360  and  _361
REMARK  151  A    between atoms: _364  and  _366
REMARK  152  A    between atoms: _366  and  _367
REMARK  153  A    between atoms: _369  and  _371
REMARK  154  A    between atoms: _371  and  _372
REMARK  155  A    between atoms: _375  and  _377
REMARK  156  A    between atoms: _377  and  _378
REMARK  157  A    between atoms: _377  and  _380
REMARK  158  A    between atoms: _380  and  _381
REMARK  159  A    between atoms: _384  and  _386
REMARK  160  A    between atoms: _386  and  _387
REMARK  161  A    between atoms: _386  and  _389
REMARK  162  A    between atoms: _389  and  _390
REMARK  163  A    between atoms: _393  and  _395
REMARK  164  A    between atoms: _395  and  _396
REMARK  165  A    between atoms: _395  and  _398
REMARK  166  A    between atoms: _398  and  _399
REMARK  167  A    between atoms: _402  and  _404
REMARK  168  A    between atoms: _404  and  _405
REMARK  169  A    between atoms: _404  and  _407
REMARK  170  A    between atoms: _410  and  _412
REMARK  171  A    between atoms: _412  and  _413
REMARK  172  A    between atoms: _412  and  _415
REMARK  173  A    between atoms: _415  and  _416
REMARK  174  A    between atoms: _419  and  _421
REMARK  175  A    between atoms: _421  and  _422
REMARK  176  A    between atoms: _421  and  _424
REMARK  177  A    between atoms: _424  and  _425
REMARK  178  A    between atoms: _425  and  _426
REMARK  179  A    between atoms: _426  and  _427
REMARK  180  A    between atoms: _427  and  _428
REMARK  181  A    between atoms: _432  and  _434
REMARK  182  A    between atoms: _434  and  _435
REMARK  183  A    between atoms: _434  and  _437
REMARK  184  A    between atoms: _437  and  _438
REMARK  185  A    between atoms: _438  and  _439
REMARK  186  A    between atoms: _441  and  _443
REMARK  187  A    between atoms: _443  and  _444
REMARK  188  A    between atoms: _443  and  _446
REMARK  189  A    between atoms: _446  and  _447
REMARK  190  A    between atoms: _450  and  _452
REMARK  191  A    between atoms: _452  and  _453
REMARK  192  A    between atoms: _455  and  _457
REMARK  193  A    between atoms: _457  and  _458
REMARK  194  A    between atoms: _460  and  _462
REMARK  195  A    between atoms: _462  and  _463
REMARK  196  A    between atoms: _462  and  _465
REMARK  197  A    between atoms: _465  and  _466
REMARK  198  A    between atoms: _469  and  _471
REMARK  199  A    between atoms: _471  and  _472
REMARK  200  A    between atoms: _474  and  _476
REMARK  201  A    between atoms: _476  and  _477
REMARK  202  A    between atoms: _479  and  _481
REMARK  203  A    between atoms: _481  and  _482
REMARK  204  A    between atoms: _481  and  _484
REMARK  205  A    between atoms: _484  and  _485
REMARK  206  A    between atoms: _491  and  _493
REMARK  207  A    between atoms: _493  and  _494
REMARK  208  A    between atoms: _493  and  _496
REMARK  209  A    between atoms: _496  and  _497
REMARK  210  A    between atoms: _500  and  _502
REMARK  211  A    between atoms: _502  and  _503
REMARK  212  A    between atoms: _502  and  _505
REMARK  213  A    between atoms: _508  and  _510
REMARK  214  A    between atoms: _510  and  _511
REMARK  215  A    between atoms: _510  and  _513
REMARK  216  A    between atoms: _513  and  _514
REMARK  217  A    between atoms: _517  and  _519
REMARK  218  A    between atoms: _519  and  _520
REMARK  219  A    between atoms: _519  and  _522
REMARK  220  A    between atoms: _522  and  _523
REMARK  221  A    between atoms: _527  and  _528
REMARK  222  A    between atoms: _533  and  _535
REMARK  223  A    between atoms: _535  and  _536
REMARK  224  A    between atoms: _535  and  _538
REMARK  225  A    between atoms: _541  and  _543
REMARK  226  A    between atoms: _543  and  _544
REMARK  227  A    between atoms: _543  and  _546
REMARK  228  A    between atoms: _546  and  _547
REMARK  229  A    between atoms: _552  and  _554
REMARK  230  A    between atoms: _554  and  _555
REMARK  231  A    between atoms: _554  and  _557
REMARK  232  A    between atoms: _557  and  _558
REMARK  233  A    between atoms: _561  and  _563
REMARK  234  A    between atoms: _563  and  _564
REMARK  235  A    between atoms: _563  and  _566
REMARK  236  A    between atoms: _566  and  _567
REMARK  237  A    between atoms: _570  and  _572
REMARK  238  A    between atoms: _572  and  _573
REMARK  239  A    between atoms: _575  and  _577
REMARK  240  A    between atoms: _577  and  _578
REMARK  241  A    between atoms: _577  and  _580
REMARK  242  A    between atoms: _580  and  _581
REMARK  243  A    between atoms: _581  and  _582
REMARK  244  A    between atoms: _582  and  _583
REMARK  245  A    between atoms: _592  and  _594
REMARK  246  A    between atoms: _594  and  _595
REMARK  247  A    between atoms: _594  and  _597
REMARK  248  A    between atoms: _597  and  _598
REMARK                            x       y       z     vdW  Elec       q    Type
REMARK                         _______ _______ _______ _____ _____    ______ ____
ROOT
ATOM      1  CA  LEU A   1      25.310  28.488  10.624  0.00  0.00    +0.133 C 
ENDROOT
BRANCH   1   2
ATOM      2  N   LEU A   1      25.624  28.309   9.213  0.00  0.00    -0.239 NA
ATOM      3  H   LEU A   1      26.509  27.827   8.955  0.00  0.00    +0.142 HD
ENDBRANCH   1   2
BRANCH   1   4
ATOM      4  C   LEU A   1      25.952  29.759  11.158  0.00  0.00    +0.224 C 
ATOM      5  O   LEU A   1      27.110  30.055  10.859  0.00  0.00    -0.287 OA
ENDBRANCH   1   4
BRANCH   1   6
ATOM      6  CB  LEU A   1      25.813  27.286  11.428  0.00  0.00    +0.025 C 
BRANCH   6   7
ATOM      7  CG  LEU A   1      25.207  25.919  11.105  0.00  0.00    +0.002 C 
ATOM      8  CD2 LEU A   1      25.948  24.833  11.876  0.00  0.00    +0.000 C 
ATOM      9  CD1 LEU A   1      23.729  25.915  11.466  0.00  0.00    +0.000 C 
ENDBRANCH   6   7
ENDBRANCH   1   6
TORSDOF 4
REMARK  Name = ../refined-set-2016/1d4h/1d4h_pocket.pdb
REMARK  248 active torsions:
REMARK  status: ('A' for Active; 'I' for Inactive)
REMARK    1  A    between atoms: _1  and  _3
REMARK    2  A    between atoms: _3  and  _4
REMARK    3  A    between atoms: _3  and  _6
REMARK    4  A    between atoms: _6  and  _7
REMARK    5  A    between atoms: _7  and  _8
REMARK    6  A    between atoms: _8  and  _9
REMARK    7  A    between atoms: _18  and  _20
REMARK    8  A    between atoms: _20  and  _21
REMARK    9  A    between atoms: _20  and  _23
REMARK   10  A    between atoms: _23  and  _24
REMARK   11  A    between atoms: _27  and  _29
REMARK   12  A    between atoms: _29  and  _30
REMARK   13  A    between atoms: _29  and  _32
REMARK   14  A    between atoms: _32  and  _33
REMARK   15  A    between atoms: _36  and  _38
REMARK   16  A    between atoms: _38  and  _39
REMARK   17  A    between atoms: _38  and  _41
REMARK   18  A    between atoms: _41  and  _42
REMARK   19  A    between atoms: _45  and  _47
REMARK   20  A    between atoms: _47  and  _48
REMARK   21  A    between atoms: _47  and  _50
REMARK   22  A    between atoms: _50  and  _51
REMARK   23  A    between atoms: _54  and  _56
REMARK   24  A    between atoms: _56  and  _57
REMARK   25  A    between atoms: _56  and  _59
REMARK   26  A    between atoms: _59  and  _60
REMARK   27  A    between atoms: _63  and  _65
REMARK   28  A    between atoms: _65  and  _66
REMARK   29  A    between atoms: _68  and  _70
REMARK   30  A    between atoms: _70  and  _71
REMARK   31  A    between atoms: _74  and  _76
REMARK   32  A    between atoms: _76  and  _77
REMARK   33  A    between atoms: _76  and  _79
REMARK   34  A    between atoms: _79  and  _80
REMARK   35  A    between atoms: _83  and  _85
REMARK   36  A    between atoms: _85  and  _86
REMARK   37  A    between atoms: _85  and  _88
REMARK   38  A    between atoms: _88  and  _89
REMARK   39  A    between atoms: _92  and  _94
REMARK   40  A    between atoms: _94  and  _95
REMARK   41  A    between atoms: _94  and  _97
REMARK   42  A    between atoms: _97  and  _98
REMARK   43  A    between atoms: _101  and  _103
REMARK   44  A    between atoms: _103  and  _104
REMARK   45  A    between atoms: _103  and  _106
REMARK   46  A    between atoms: _109  and  _111
REMARK   47  A    between atoms: _111  and  _112
REMARK   48  A    between atoms: _111  and  _114
REMARK   49  A    between atoms: _114  and  _115
REMARK   50  A    between atoms: _118  and  _120
REMARK   51  A    between atoms: _120  and  _121
REMARK   52  A    between atoms: _120  and  _123
REMARK   53  A    between atoms: _123  and  _124
REMARK   54  A    between atoms: _124  and  _125
REMARK   55  A    between atoms: _125  and  _126
REMARK   56  A    between atoms: _126  and  _127
REMARK   57  A    between atoms: _131  and  _133
REMARK   58  A    between atoms: _133  and  _134
REMARK   59  A    between atoms: _133  and  _136
REMARK   60  A    between atoms: _136  and  _137
REMARK   61  A    between atoms: _137  and  _138
REMARK   62  A    between atoms: _140  and  _142
REMARK   63  A    between atoms: _142  and  _143
REMARK   64  A    between atoms: _142  and  _145
REMARK   65  A    between atoms: _145  and  _146
REMARK   66  A    between atoms: _149  and  _151
REMARK   67  A    between atoms: _151  and  _152
REMARK   68  A    between atoms: _154  and  _156
REMARK   69  A    between atoms: _156  and  _157
REMARK   70  A    between atoms: _159  and  _161
REMARK   71  A    between atoms: _161  and  _162
REMARK   72  A    between atoms: _161  and  _164
REMARK   73  A    between atoms: _164  and  _165
REMARK   74  A    between atoms: _168  and  _170
REMARK   75  A    between atoms: _170  and  _171
REMARK   76  A    between atoms: _173  and  _175
REMARK   77  A    between atoms: _175  and  _176
REMARK   78  A    between atoms: _178  and  _180
REMARK   79  A    between atoms: _180  and  _181
REMARK   80  A    between atoms: _180  and  _183
REMARK   81  A    between atoms: _183  and  _184
REMARK   82  A    between atoms: _190  and  _192
REMARK   83  A    between atoms: _192  and  _193
REMARK   84  A    between atoms: _192  and  _195
REMARK   85  A    between atoms: _195  and  _196
REMARK   86  A    between atoms: _199  and  _201
REMARK   87  A    between atoms: _201  and  _202
REMARK   88  A    between atoms: _201  and  _204
REMARK   89  A    between atoms: _207  and  _209
REMARK   90  A    between atoms: _209  and  _210
REMARK   91  A    between atoms: _209  and  _212
REMARK   92  A    between atoms: _212  and  _213
REMARK   93  A    between atoms: _216  and  _218
REMARK   94  A    between atoms: _218  and  _219
REMARK   95  A    between atoms: _218  and  _221
REMARK   96  A    between atoms: _221  and  _222
REMARK   97  A    between atoms: _226  and  _227
REMARK   98  A    between atoms: _232  and  _234
REMARK   99  A    between atoms: _234  and  _235
REMARK  100  A    between atoms: _234  and  _237
REMARK  101  A    between atoms: _240  and  _242
REMARK  102  A    between atoms: _242  and  _243
REMARK  103  A    between atoms: _242  and  _245
REMARK  104  A    between atoms: _245  and  _246
REMARK  105  A    between atoms: _251  and  _253
REMARK  106  A    between atoms: _253  and  _254
REMARK  107  A    between atoms: _253  and  _256
REMARK  108  A    between atoms: _256  and  _257
REMARK  109  A    between atoms: _260  and  _262
REMARK  110  A    between atoms: _262  and  _263
REMARK  111  A    between atoms: _262  and  _265
REMARK  112  A    between atoms: _265  and  _266
REMARK  113  A    between atoms: _269  and  _271
REMARK  114  A    between atoms: _271  and  _272
REMARK  115  A    between atoms: _274  and  _276
REMARK  116  A    between atoms: _276  and  _277
REMARK  117  A    between atoms: _276  and  _279
REMARK  118  A    between atoms: _279  and  _280
REMARK  119  A    between atoms: _280  and  _281
REMARK  120  A    between atoms: _281  and  _282
REMARK  121  A    between atoms: _291  and  _293
REMARK  122  A    between atoms: _293  and  _294
REMARK  123  A    between atoms: _293  and  _296
REMARK  124  A    between atoms: _296  and  _297
REMARK  125  A    between atoms: _302  and  _304
REMARK  126  A    between atoms: _304  and  _305
REMARK  127  A    between atoms: _304  and  _307
REMARK  128  A    between atoms: _307  and  _308
REMARK  129  A    between atoms: _308  and  _309
REMARK  130  A    between atoms: _309  and  _310
REMARK  131  A    between atoms: _319  and  _321
REMARK  132  A    between atoms: _321  and  _322
REMARK  133  A    between atoms: _321  and  _324
REMARK  134  A    between atoms: _324  and  _325
REMARK  135  A    between atoms: _328  and  _330
REMARK  136  A    between atoms: _330  and  _331
REMARK  137  A    between atoms: _330  and  _333
REMARK  138  A    between atoms: _333  and  _334
REMARK  139  A    between atoms: _337  and  _339
REMARK  140  A    between atoms: _339  and  _340
REMARK  141  A    between atoms: _339  and  _342
REMARK  142  A    between atoms: _342  and  _343
REMARK  143  A    between atoms: _346  and  _348
REMARK  144  A    between atoms: _348  and  _349
REMARK  145  A    between atoms: _348  and  _351
REMARK  146  A    between atoms: _351  and  _352
REMARK  147  A    between atoms: _355  and  _357
REMARK  148  A    between atoms: _357  and  _358
REMARK  149  A    between atoms: _357  and  _360
REMARK  150  A    between atoms: _360  and  _361
REMARK  151  A    between atoms: _364  and  _366
REMARK  152  A    between atoms: _366  and  _367
REMARK  153  A    between atoms: _369  and  _371
REMARK  154  A    between atoms: _371  and  _372
REMARK  155  A    between atoms: _375  and  _377
REMARK  156  A    between atoms: _377  and  _378
REMARK  157  A    between atoms: _377  and  _380
REMARK  158  A    between atoms: _380  and  _381
REMARK  159  A    between atoms: _384  and  _386
REMARK  160  A    between atoms: _386  and  _387
REMARK  161  A    between atoms: _386  and  _389
REMARK  162  A    between atoms: _389  and  _390
REMARK  163  A    between atoms: _393  and  _395
REMARK  164  A    between atoms: _395  and  _396
REMARK  165  A    between atoms: _395  and  _398
REMARK  166  A    between atoms: _398  and  _399
REMARK  167  A    between atoms: _402  and  _404
REMARK  168  A    between atoms: _404  and  _405
REMARK  169  A    between atoms: _404  and  _407
REMARK  170  A    between atoms: _410  and  _412
REMARK  171  A    between atoms: _412  and  _413
REMARK  172  A    between atoms: _412  and  _415
REMARK  173  A    between atoms: _415  and  _416
REMARK  174  A    between atoms: _419  and  _421
REMARK  175  A    between atoms: _421  and  _422
REMARK  176  A    between atoms: _421  and  _424
REMARK  177  A    between atoms: _424  and  _425
REMARK  178  A    between atoms: _425  and  _426
REMARK  179  A    between atoms: _426  and  _427
REMARK  180  A    between atoms: _427  and  _428
REMARK  181  A    between atoms: _432  and  _434
REMARK  182  A    between atoms: _434  and  _435
REMARK  183  A    between atoms: _434  and  _437
REMARK  184  A    between atoms: _437  and  _438
REMARK  185  A    between atoms: _438  and  _439
REMARK  186  A    between atoms: _441  and  _443
REMARK  187  A    between atoms: _443  and  _444
REMARK  188  A    between atoms: _443  and  _446
REMARK  189  A    between atoms: _446  and  _447
REMARK  190  A    between atoms: _450  and  _452
REMARK  191  A    between atoms: _452  and  _453
REMARK  192  A    between atoms: _455  and  _457
REMARK  193  A    between atoms: _457  and  _458
REMARK  194  A    between atoms: _460  and  _462
REMARK  195  A    between atoms: _462  and  _463
REMARK  196  A    between atoms: _462  and  _465
REMARK  197  A    between atoms: _465  and  _466
REMARK  198  A    between atoms: _469  and  _471
REMARK  199  A    between atoms: _471  and  _472
REMARK  200  A    between atoms: _474  and  _476
REMARK  201  A    between atoms: _476  and  _477
REMARK  202  A    between atoms: _479  and  _481
REMARK  203  A    between atoms: _481  and  _482
REMARK  204  A    between atoms: _481  and  _484
REMARK  205  A    between atoms: _484  and  _485
REMARK  206  A    between atoms: _491  and  _493
REMARK  207  A    between atoms: _493  and  _494
REMARK  208  A    between atoms: _493  and  _496
REMARK  209  A    between atoms: _496  and  _497
REMARK  210  A    between atoms: _500  and  _502
REMARK  211  A    between atoms: _502  and  _503
REMARK  212  A    between atoms: _502  and  _505
REMARK  213  A    between atoms: _508  and  _510
REMARK  214  A    between atoms: _510  and  _511
REMARK  215  A    between atoms: _510  and  _513
REMARK  216  A    between atoms: _513  and  _514
REMARK  217  A    between atoms: _517  and  _519
REMARK  218  A    between atoms: _519  and  _520
REMARK  219  A    between atoms: _519  and  _522
REMARK  220  A    between atoms: _522  and  _523
REMARK  221  A    between atoms: _527  and  _528
REMARK  222  A    between atoms: _533  and  _535
REMARK  223  A    between atoms: _535  and  _536
REMARK  224  A    between atoms: _535  and  _538
REMARK  225  A    between atoms: _541  and  _543
REMARK  226  A    between atoms: _543  and  _544
REMARK  227  A    between atoms: _543  and  _546
REMARK  228  A    between atoms: _546  and  _547
REMARK  229  A    between atoms: _552  and  _554
REMARK  230  A    between atoms: _554  and  _555
REMARK  231  A    between atoms: _554  and  _557
REMARK  232  A    between atoms: _557  and  _558
REMARK  233  A    between atoms: _561  and  _563
REMARK  234  A    between atoms: _563  and  _564
REMARK  235  A    between atoms: _563  and  _566
REMARK  236  A    between atoms: _566  and  _567
REMARK  237  A    between atoms: _570  and  _572
REMARK  238  A    between atoms: _572  and  _573
REMARK  239  A    between atoms: _575  and  _577
REMARK  240  A    between atoms: _577  and  _578
REMARK  241  A    between atoms: _577  and  _580
REMARK  242  A    between atoms: _580  and  _581
REMARK  243  A    between atoms: _581  and  _582
REMARK  244  A    between atoms: _582  and  _583
REMARK  245  A    between atoms: _592  and  _594
REMARK  246  A    between atoms: _594  and  _595
REMARK  247  A    between atoms: _594  and  _597
REMARK  248  A    between atoms: _597  and  _598
REMARK                            x       y       z     vdW  Elec       q    Type
REMARK                         _______ _______ _______ _____ _____    ______ ____
ROOT
ATOM      1  C   ALA A   6      11.225  30.389   5.713  0.00  0.00    +0.241 C 
ATOM      2  N   ASP A   7       9.894  30.402   5.720  0.00  0.00    -0.297 N 
ATOM      3  H   ASP A   7       9.365  29.507   5.754  0.00  0.00    +0.150 HD
ATOM      4  O   ALA A   6      11.896  31.420   5.668  0.00  0.00    -0.273 OA
ENDROOT
BRANCH   1   5
ATOM      5  CA  ALA A   6      11.912  29.027   5.768  0.00  0.00    +0.149 C 
ATOM      6  CB  ALA A   6      12.672  28.883   7.084  0.00  0.00    +0.031 C 
BRANCH   5   8
ATOM      7  C   GLY A   5      12.483  28.221   3.553  0.00  0.00    +0.243 C 
ATOM      8  N   ALA A   6      12.833  28.876   4.653  0.00  0.00    -0.297 N 
ATOM      9  H   ALA A   6      13.785  29.289   4.719  0.00  0.00    +0.150 HD
ATOM     10  O   GLY A   5      11.379  27.693   3.420  0.00  0.00    -0.273 OA
BRANCH   7  11
ATOM     11  CA  GLY A   5      13.531  28.136   2.455  0.00  0.00    +0.176 C 
BRANCH  11  13
ATOM     12  C   THR A   4      14.738  30.236   2.402  0.00  0.00    +0.243 C 
ATOM     13  N   GLY A   5      14.708  28.948   2.730  0.00  0.00    -0.295 N 
ATOM     14  H   GLY A   5      15.535  28.515   3.188  0.00  0.00    +0.150 HD
ATOM     15  O   THR A   4      13.797  30.813   1.852  0.00  0.00    -0.273 OA
BRANCH  12  16
ATOM     16  CA  THR A   4      16.018  30.992   2.743  0.00  0.00    +0.176 C 
BRANCH  16  19
ATOM     17  C   ASP A   3      16.479  30.147   4.972  0.00  0.00    +0.241 C 
ATOM     18  O   ASP A   3      15.426  30.606   5.393  0.00  0.00    -0.273 OA
ATOM     19  N   THR A   4      16.856  30.269   3.700  0.00  0.00    -0.295 N 
ATOM     20  H   THR A   4      17.753  29.847   3.385  0.00  0.00    +0.150 HD
BRANCH  17  21
ATOM     21  CA  ASP A   3      17.409  29.385   5.910  0.00  0.00    +0.160 C 
BRANCH  21  23
ATOM     22  C   LEU A   2      19.549  30.228   6.691  0.00  0.00    +0.241 C 
ATOM     23  N   ASP A   3      18.226  30.230   6.765  0.00  0.00    -0.297 N 
ATOM     24  H   ASP A   3      17.759  30.854   7.454  0.00  0.00    +0.150 HD
ATOM     25  O   LEU A   2      20.182  29.595   5.840  0.00  0.00    -0.273 OA
BRANCH  22  26
ATOM     26  CA  LEU A   2      20.266  31.072   7.734  0.00  0.00    +0.149 C 
BRANCH  26  29
ATOM     27  C   LEU A   1      20.143  29.396   9.505  0.00  0.00    +0.238 C 
ATOM     28  O   LEU A   1      18.962  29.657   9.734  0.00  0.00    -0.274 OA
ATOM     29  N   LEU A   2      20.863  30.041   8.586  0.00  0.00    -0.297 N 
ATOM     30  H   LEU A   2      21.870  29.807   8.472  0.00  0.00    +0.150 HD
BRANCH  27  31
ATOM     31  CA  LEU A   1      20.853  28.298  10.298  0.00  0.00    +0.145 C 
BRANCH  31  32
ATOM     32  N   LEU A   1      20.641  28.488  11.719  0.00  0.00    -0.238 NA
ATOM     33  H   LEU A   1      19.756  28.144  12.143  0.00  0.00    +0.142 HD
ENDBRANCH  31  32
BRANCH  31  34
ATOM     34  CB  LEU A   1      20.292  26.932   9.893  0.00  0.00    +0.026 C 
BRANCH  34  35
ATOM     35  CG  LEU A   1      20.417  26.457   8.448  0.00  0.00    +0.002 C 
ATOM     36  CD2 LEU A   1      19.617  25.169   8.268  0.00  0.00    +0.000 C 
ATOM     37  CD1 LEU A   1      21.881  26.213   8.121  0.00  0.00    +0.000 C 
ENDBRANCH  34  35
ENDBRANCH  31  34
ENDBRANCH  27  31
ENDBRANCH  26  29
BRANCH  26  38
ATOM     38  CB  LEU A   2      21.343  31.936   7.076  0.00  0.00    +0.029 C 
BRANCH  38  39
ATOM     39  CG  LEU A   2      22.235  32.713   8.045  0.00  0.00    +0.002 C 
ATOM     40  CD2 LEU A   2      21.379  33.553   8.983  0.00  0.00    +0.000 C 
ATOM     41  CD1 LEU A   2      23.176  33.608   7.253  0.00  0.00    +0.000 C 
ENDBRANCH  38  39
ENDBRANCH  26  38
ENDBRANCH  22  26
ENDBRANCH  21  23
BRANCH  21  42
ATOM     42  CB  ASP A   3      16.595  28.477   6.834  0.00  0.00    +0.143 C 
BRANCH  42  43
ATOM     43  CG  ASP A   3      15.958  27.319   6.114  0.00  0.00    +0.367 C 
ATOM     44  OD2 ASP A   3      15.545  26.373   6.812  0.00  0.00    -0.246 OA
ATOM     45  OD1 ASP A   3      15.865  27.359   4.870  0.00  0.00    -0.246 OA
ENDBRANCH  42  43
ENDBRANCH  21  42
ENDBRANCH  17  21
ENDBRANCH  16  19
BRANCH  16  46
ATOM     46  CB  THR A   4      16.767  31.284   1.427  0.00  0.00    +0.137 C 
ATOM     47  CG2 THR A   4      17.974  32.177   1.693  0.00  0.00    +0.034 C 
BRANCH  46  48
ATOM     48  OG1 THR A   4      17.197  30.051   0.830  0.00  0.00    -0.382 OA
ATOM     49  HG1 THR A   4      16.407  29.485   0.640  0.00  0.00    +0.210 HD
ENDBRANCH  46  48
ENDBRANCH  16  46
ENDBRANCH  12  16
ENDBRANCH  11  13
ENDBRANCH   7  11
ENDBRANCH   5   8
ENDBRANCH   1   5
BRANCH   2  50
ATOM     50  CA  ASP A   7       9.176  31.677   5.680  0.00  0.00    +0.160 C 
BRANCH  50  51
ATOM     51  C   ASP A   7       9.381  32.449   6.967  0.00  0.00    +0.241 C 
ATOM     52  N   ASP A   8       9.367  31.725   8.077  0.00  0.00    -0.297 N 
ATOM     53  H   ASP A   8       9.234  30.695   8.013  0.00  0.00    +0.150 HD
ATOM     54  O   ASP A   7       9.533  33.668   6.959  0.00  0.00    -0.273 OA
BRANCH  52  55
ATOM     55  CA  ASP A   8       9.533  32.341   9.378  0.00  0.00    +0.160 C 
BRANCH  55  56
ATOM     56  C   ASP A   8      10.694  31.748  10.154  0.00  0.00    +0.241 C 
ATOM     57  N   THR A   9      10.953  32.341  11.308  0.00  0.00    -0.295 N 
ATOM     58  H   THR A   9      10.351  33.137  11.601  0.00  0.00    +0.150 HD
ATOM     59  O   ASP A   8      11.329  30.792   9.721  0.00  0.00    -0.273 OA
BRANCH  57  60
ATOM     60  CA  THR A   9      12.034  31.936  12.184  0.00  0.00    +0.176 C 
BRANCH  60  61
ATOM     61  C   THR A   9      11.488  31.022  13.278  0.00  0.00    +0.243 C 
ATOM     62  O   THR A   9      10.480  31.328  13.912  0.00  0.00    -0.273 OA
ATOM     63  N   VAL A  10      12.141  29.885  13.476  0.00  0.00    -0.297 N 
ATOM     64  H   VAL A  10      12.974  29.660  12.895  0.00  0.00    +0.150 HD
BRANCH  63  65
ATOM     65  CA  VAL A  10      11.700  28.951  14.500  0.00  0.00    +0.149 C 
BRANCH  65  66
ATOM     66  C   VAL A  10      12.894  28.480  15.312  0.00  0.00    +0.241 C 
ATOM     67  N   LEU A  11      12.773  28.609  16.626  0.00  0.00    -0.298 N 
ATOM     68  H   LEU A  11      11.891  28.997  17.017  0.00  0.00    +0.150 HD
ATOM     69  O   VAL A  10      13.901  28.026  14.765  0.00  0.00    -0.273 OA
BRANCH  67  70
ATOM     70  CA  LEU A  11      13.840  28.223  17.537  0.00  0.00    +0.137 C 
BRANCH  70  71
ATOM     71  C   LEU A  11      13.398  27.071  18.429  0.00  0.00    +0.227 C 
ATOM     72  O   LEU A  11      12.207  26.866  18.648  0.00  0.00    -0.286 OA
ENDBRANCH  70  71
BRANCH  70  73
ATOM     73  CB  LEU A  11      14.232  29.421  18.402  0.00  0.00    +0.028 C 
BRANCH  73  74
ATOM     74  CG  LEU A  11      14.620  30.691  17.638  0.00  0.00    +0.002 C 
ATOM     75  CD2 LEU A  11      14.901  31.806  18.636  0.00  0.00    +0.000 C 
ATOM     76  CD1 LEU A  11      15.850  30.422  16.769  0.00  0.00    +0.000 C 
ENDBRANCH  73  74
ENDBRANCH  70  73
ENDBRANCH  67  70
ENDBRANCH  65  66
BRANCH  65  77
ATOM     77  CB  VAL A  10      10.948  27.737  13.890  0.00  0.00    +0.027 C 
ATOM     78  CG2 VAL A  10      10.453  26.822  15.006  0.00  0.00    +0.002 C 
ATOM     79  CG1 VAL A  10      11.839  26.986  12.928  0.00  0.00    +0.002 C 
ENDBRANCH  65  77
ENDBRANCH  63  65
ENDBRANCH  60  61
BRANCH  60  80
ATOM     80  CB  THR A   9      12.693  33.189  12.798  0.00  0.00    +0.137 C 
ATOM     81  CG2 THR A   9      13.732  32.813  13.848  0.00  0.00    +0.034 C 
BRANCH  80  82
ATOM     82  OG1 THR A   9      13.323  33.943  11.754  0.00  0.00    -0.382 OA
ATOM     83  HG1 THR A   9      12.643  34.215  11.088  0.00  0.00    +0.210 HD
ENDBRANCH  80  82
ENDBRANCH  60  80
ENDBRANCH  57  60
ENDBRANCH  55  56
BRANCH  55  84
ATOM     84  CB  ASP A   8       8.242  32.209  10.184  0.00  0.00    +0.143 C 
BRANCH  84  85
ATOM     85  CG  ASP A   8       7.170  33.171   9.717  0.00  0.00    +0.367 C 
ATOM     86  OD2 ASP A   8       7.408  34.398   9.780  0.00  0.00    -0.246 OA
ATOM     87  OD1 ASP A   8       6.097  32.703   9.285  0.00  0.00    -0.246 OA
ENDBRANCH  84  85
ENDBRANCH  55  84
ENDBRANCH  52  55
ENDBRANCH  50  51
BRANCH  50  88
ATOM     88  CB  ASP A   7       7.674  31.468   5.490  0.00  0.00    +0.143 C 
BRANCH  88  89
ATOM     89  CG  ASP A   7       7.338  30.814   4.174  0.00  0.00    +0.367 C 
ATOM     90  OD2 ASP A   7       6.316  30.107   4.123  0.00  0.00    -0.246 OA
ATOM     91  OD1 ASP A   7       8.082  31.016   3.193  0.00  0.00    -0.246 OA
ENDBRANCH  88  89
ENDBRANCH  50  88
ENDBRANCH   2  50
TORSDOF 39
REMARK  Name = ../refined-set-2016/1d4h/1d4h_pocket.pdb
REMARK  248 active torsions:
REMARK  status: ('A' for Active; 'I' for Inactive)
REMARK    1  A    between atoms: _1  and  _3
REMARK    2  A    between atoms: _3  and  _4
REMARK    3  A    between atoms: _3  and  _6
REMARK    4  A    between atoms: _6  and  _7
REMARK    5  A    between atoms: _7  and  _8
REMARK    6  A    between atoms: _8  and  _9
REMARK    7  A    between atoms: _18  and  _20
REMARK    8  A    between atoms: _20  and  _21
REMARK    9  A    between atoms: _20  and  _23
REMARK   10  A    between atoms: _23  and  _24
REMARK   11  A    between atoms: _27  and  _29
REMARK   12  A    between atoms: _29  and  _30
REMARK   13  A    between atoms: _29  and  _32
REMARK   14  A    between atoms: _32  and  _33
REMARK   15  A    between atoms: _36  and  _38
REMARK   16  A    between atoms: _38  and  _39
REMARK   17  A    between atoms: _38  and  _41
REMARK   18  A    between atoms: _41  and  _42
REMARK   19  A    between atoms: _45  and  _47
REMARK   20  A    between atoms: _47  and  _48
REMARK   21  A    between atoms: _47  and  _50
REMARK   22  A    between atoms: _50  and  _51
REMARK   23  A    between atoms: _54  and  _56
REMARK   24  A    between atoms: _56  and  _57
REMARK   25  A    between atoms: _56  and  _59
REMARK   26  A    between atoms: _59  and  _60
REMARK   27  A    between atoms: _63  and  _65
REMARK   28  A    between atoms: _65  and  _66
REMARK   29  A    between atoms: _68  and  _70
REMARK   30  A    between atoms: _70  and  _71
REMARK   31  A    between atoms: _74  and  _76
REMARK   32  A    between atoms: _76  and  _77
REMARK   33  A    between atoms: _76  and  _79
REMARK   34  A    between atoms: _79  and  _80
REMARK   35  A    between atoms: _83  and  _85
REMARK   36  A    between atoms: _85  and  _86
REMARK   37  A    between atoms: _85  and  _88
REMARK   38  A    between atoms: _88  and  _89
REMARK   39  A    between atoms: _92  and  _94
REMARK   40  A    between atoms: _94  and  _95
REMARK   41  A    between atoms: _94  and  _97
REMARK   42  A    between atoms: _97  and  _98
REMARK   43  A    between atoms: _101  and  _103
REMARK   44  A    between atoms: _103  and  _104
REMARK   45  A    between atoms: _103  and  _106
REMARK   46  A    between atoms: _109  and  _111
REMARK   47  A    between atoms: _111  and  _112
REMARK   48  A    between atoms: _111  and  _114
REMARK   49  A    between atoms: _114  and  _115
REMARK   50  A    between atoms: _118  and  _120
REMARK   51  A    between atoms: _120  and  _121
REMARK   52  A    between atoms: _120  and  _123
REMARK   53  A    between atoms: _123  and  _124
REMARK   54  A    between atoms: _124  and  _125
REMARK   55  A    between atoms: _125  and  _126
REMARK   56  A    between atoms: _126  and  _127
REMARK   57  A    between atoms: _131  and  _133
REMARK   58  A    between atoms: _133  and  _134
REMARK   59  A    between atoms: _133  and  _136
REMARK   60  A    between atoms: _136  and  _137
REMARK   61  A    between atoms: _137  and  _138
REMARK   62  A    between atoms: _140  and  _142
REMARK   63  A    between atoms: _142  and  _143
REMARK   64  A    between atoms: _142  and  _145
REMARK   65  A    between atoms: _145  and  _146
REMARK   66  A    between atoms: _149  and  _151
REMARK   67  A    between atoms: _151  and  _152
REMARK   68  A    between atoms: _154  and  _156
REMARK   69  A    between atoms: _156  and  _157
REMARK   70  A    between atoms: _159  and  _161
REMARK   71  A    between atoms: _161  and  _162
REMARK   72  A    between atoms: _161  and  _164
REMARK   73  A    between atoms: _164  and  _165
REMARK   74  A    between atoms: _168  and  _170
REMARK   75  A    between atoms: _170  and  _171
REMARK   76  A    between atoms: _173  and  _175
REMARK   77  A    between atoms: _175  and  _176
REMARK   78  A    between atoms: _178  and  _180
REMARK   79  A    between atoms: _180  and  _181
REMARK   80  A    between atoms: _180  and  _183
REMARK   81  A    between atoms: _183  and  _184
REMARK   82  A    between atoms: _190  and  _192
REMARK   83  A    between atoms: _192  and  _193
REMARK   84  A    between atoms: _192  and  _195
REMARK   85  A    between atoms: _195  and  _196
REMARK   86  A    between atoms: _199  and  _201
REMARK   87  A    between atoms: _201  and  _202
REMARK   88  A    between atoms: _201  and  _204
REMARK   89  A    between atoms: _207  and  _209
REMARK   90  A    between atoms: _209  and  _210
REMARK   91  A    between atoms: _209  and  _212
REMARK   92  A    between atoms: _212  and  _213
REMARK   93  A    between atoms: _216  and  _218
REMARK   94  A    between atoms: _218  and  _219
REMARK   95  A    between atoms: _218  and  _221
REMARK   96  A    between atoms: _221  and  _222
REMARK   97  A    between atoms: _226  and  _227
REMARK   98  A    between atoms: _232  and  _234
REMARK   99  A    between atoms: _234  and  _235
REMARK  100  A    between atoms: _234  and  _237
REMARK  101  A    between atoms: _240  and  _242
REMARK  102  A    between atoms: _242  and  _243
REMARK  103  A    between atoms: _242  and  _245
REMARK  104  A    between atoms: _245  and  _246
REMARK  105  A    between atoms: _251  and  _253
REMARK  106  A    between atoms: _253  and  _254
REMARK  107  A    between atoms: _253  and  _256
REMARK  108  A    between atoms: _256  and  _257
REMARK  109  A    between atoms: _260  and  _262
REMARK  110  A    between atoms: _262  and  _263
REMARK  111  A    between atoms: _262  and  _265
REMARK  112  A    between atoms: _265  and  _266
REMARK  113  A    between atoms: _269  and  _271
REMARK  114  A    between atoms: _271  and  _272
REMARK  115  A    between atoms: _274  and  _276
REMARK  116  A    between atoms: _276  and  _277
REMARK  117  A    between atoms: _276  and  _279
REMARK  118  A    between atoms: _279  and  _280
REMARK  119  A    between atoms: _280  and  _281
REMARK  120  A    between atoms: _281  and  _282
REMARK  121  A    between atoms: _291  and  _293
REMARK  122  A    between atoms: _293  and  _294
REMARK  123  A    between atoms: _293  and  _296
REMARK  124  A    between atoms: _296  and  _297
REMARK  125  A    between atoms: _302  and  _304
REMARK  126  A    between atoms: _304  and  _305
REMARK  127  A    between atoms: _304  and  _307
REMARK  128  A    between atoms: _307  and  _308
REMARK  129  A    between atoms: _308  and  _309
REMARK  130  A    between atoms: _309  and  _310
REMARK  131  A    between atoms: _319  and  _321
REMARK  132  A    between atoms: _321  and  _322
REMARK  133  A    between atoms: _321  and  _324
REMARK  134  A    between atoms: _324  and  _325
REMARK  135  A    between atoms: _328  and  _330
REMARK  136  A    between atoms: _330  and  _331
REMARK  137  A    between atoms: _330  and  _333
REMARK  138  A    between atoms: _333  and  _334
REMARK  139  A    between atoms: _337  and  _339
REMARK  140  A    between atoms: _339  and  _340
REMARK  141  A    between atoms: _339  and  _342
REMARK  142  A    between atoms: _342  and  _343
REMARK  143  A    between atoms: _346  and  _348
REMARK  144  A    between atoms: _348  and  _349
REMARK  145  A    between atoms: _348  and  _351
REMARK  146  A    between atoms: _351  and  _352
REMARK  147  A    between atoms: _355  and  _357
REMARK  148  A    between atoms: _357  and  _358
REMARK  149  A    between atoms: _357  and  _360
REMARK  150  A    between atoms: _360  and  _361
REMARK  151  A    between atoms: _364  and  _366
REMARK  152  A    between atoms: _366  and  _367
REMARK  153  A    between atoms: _369  and  _371
REMARK  154  A    between atoms: _371  and  _372
REMARK  155  A    between atoms: _375  and  _377
REMARK  156  A    between atoms: _377  and  _378
REMARK  157  A    between atoms: _377  and  _380
REMARK  158  A    between atoms: _380  and  _381
REMARK  159  A    between atoms: _384  and  _386
REMARK  160  A    between atoms: _386  and  _387
REMARK  161  A    between atoms: _386  and  _389
REMARK  162  A    between atoms: _389  and  _390
REMARK  163  A    between atoms: _393  and  _395
REMARK  164  A    between atoms: _395  and  _396
REMARK  165  A    between atoms: _395  and  _398
REMARK  166  A    between atoms: _398  and  _399
REMARK  167  A    between atoms: _402  and  _404
REMARK  168  A    between atoms: _404  and  _405
REMARK  169  A    between atoms: _404  and  _407
REMARK  170  A    between atoms: _410  and  _412
REMARK  171  A    between atoms: _412  and  _413
REMARK  172  A    between atoms: _412  and  _415
REMARK  173  A    between atoms: _415  and  _416
REMARK  174  A    between atoms: _419  and  _421
REMARK  175  A    between atoms: _421  and  _422
REMARK  176  A    between atoms: _421  and  _424
REMARK  177  A    between atoms: _424  and  _425
REMARK  178  A    between atoms: _425  and  _426
REMARK  179  A    between atoms: _426  and  _427
REMARK  180  A    between atoms: _427  and  _428
REMARK  181  A    between atoms: _432  and  _434
REMARK  182  A    between atoms: _434  and  _435
REMARK  183  A    between atoms: _434  and  _437
REMARK  184  A    between atoms: _437  and  _438
REMARK  185  A    between atoms: _438  and  _439
REMARK  186  A    between atoms: _441  and  _443
REMARK  187  A    between atoms: _443  and  _444
REMARK  188  A    between atoms: _443  and  _446
REMARK  189  A    between atoms: _446  and  _447
REMARK  190  A    between atoms: _450  and  _452
REMARK  191  A    between atoms: _452  and  _453
REMARK  192  A    between atoms: _455  and  _457
REMARK  193  A    between atoms: _457  and  _458
REMARK  194  A    between atoms: _460  and  _462
REMARK  195  A    between atoms: _462  and  _463
REMARK  196  A    between atoms: _462  and  _465
REMARK  197  A    between atoms: _465  and  _466
REMARK  198  A    between atoms: _469  and  _471
REMARK  199  A    between atoms: _471  and  _472
REMARK  200  A    between atoms: _474  and  _476
REMARK  201  A    between atoms: _476  and  _477
REMARK  202  A    between atoms: _479  and  _481
REMARK  203  A    between atoms: _481  and  _482
REMARK  204  A    between atoms: _481  and  _484
REMARK  205  A    between atoms: _484  and  _485
REMARK  206  A    between atoms: _491  and  _493
REMARK  207  A    between atoms: _493  and  _494
REMARK  208  A    between atoms: _493  and  _496
REMARK  209  A    between atoms: _496  and  _497
REMARK  210  A    between atoms: _500  and  _502
REMARK  211  A    between atoms: _502  and  _503
REMARK  212  A    between atoms: _502  and  _505
REMARK  213  A    between atoms: _508  and  _510
REMARK  214  A    between atoms: _510  and  _511
REMARK  215  A    between atoms: _510  and  _513
REMARK  216  A    between atoms: _513  and  _514
REMARK  217  A    between atoms: _517  and  _519
REMARK  218  A    between atoms: _519  and  _520
REMARK  219  A    between atoms: _519  and  _522
REMARK  220  A    between atoms: _522  and  _523
REMARK  221  A    between atoms: _527  and  _528
REMARK  222  A    between atoms: _533  and  _535
REMARK  223  A    between atoms: _535  and  _536
REMARK  224  A    between atoms: _535  and  _538
REMARK  225  A    between atoms: _541  and  _543
REMARK  226  A    between atoms: _543  and  _544
REMARK  227  A    between atoms: _543  and  _546
REMARK  228  A    between atoms: _546  and  _547
REMARK  229  A    between atoms: _552  and  _554
REMARK  230  A    between atoms: _554  and  _555
REMARK  231  A    between atoms: _554  and  _557
REMARK  232  A    between atoms: _557  and  _558
REMARK  233  A    between atoms: _561  and  _563
REMARK  234  A    between atoms: _563  and  _564
REMARK  235  A    between atoms: _563  and  _566
REMARK  236  A    between atoms: _566  and  _567
REMARK  237  A    between atoms: _570  and  _572
REMARK  238  A    between atoms: _572  and  _573
REMARK  239  A    between atoms: _575  and  _577
REMARK  240  A    between atoms: _577  and  _578
REMARK  241  A    between atoms: _577  and  _580
REMARK  242  A    between atoms: _580  and  _581
REMARK  243  A    between atoms: _581  and  _582
REMARK  244  A    between atoms: _582  and  _583
REMARK  245  A    between atoms: _592  and  _594
REMARK  246  A    between atoms: _594  and  _595
REMARK  247  A    between atoms: _594  and  _597
REMARK  248  A    between atoms: _597  and  _598
REMARK                            x       y       z     vdW  Elec       q    Type
REMARK                         _______ _______ _______ _____ _____    ______ ____
ROOT
ATOM      1  C   GLY A   5       8.067  20.023   5.749  0.00  0.00    +0.243 C 
ATOM      2  O   GLY A   5       7.077  19.315   5.564  0.00  0.00    -0.273 OA
ATOM      3  N   ILE A   6       9.307  19.611   5.523  0.00  0.00    -0.297 N 
ATOM      4  H   ILE A   6      10.097  20.272   5.666  0.00  0.00    +0.150 HD
ENDROOT
BRANCH   3   5
ATOM      5  CA  ILE A   6       9.586  18.258   5.080  0.00  0.00    +0.149 C 
BRANCH   5   6
ATOM      6  C   ILE A   6       9.256  17.358   6.266  0.00  0.00    +0.241 C 
ATOM      7  O   ILE A   6       9.756  17.582   7.361  0.00  0.00    -0.273 OA
ATOM      8  N   GLY A   7       8.412  16.355   6.057  0.00  0.00    -0.295 N 
ATOM      9  H   GLY A   7       7.992  16.213   5.116  0.00  0.00    +0.150 HD
BRANCH   8  10
ATOM     10  CA  GLY A   7       8.077  15.457   7.146  0.00  0.00    +0.176 C 
BRANCH  10  11
ATOM     11  C   GLY A   7       6.714  15.701   7.765  0.00  0.00    +0.243 C 
ATOM     12  O   GLY A   7       6.149  14.813   8.406  0.00  0.00    -0.273 OA
ATOM     13  N   GLY A   8       6.177  16.900   7.578  0.00  0.00    -0.295 N 
ATOM     14  H   GLY A   8       6.689  17.621   7.031  0.00  0.00    +0.150 HD
BRANCH  13  15
ATOM     15  CA  GLY A   8       4.875  17.201   8.139  0.00  0.00    +0.176 C 
BRANCH  15  16
ATOM     16  C   GLY A   8       4.862  18.477   8.955  0.00  0.00    +0.243 C 
ATOM     17  N   PHE A   9       3.838  18.620   9.790  0.00  0.00    -0.297 N 
ATOM     18  H   PHE A   9       3.134  17.858   9.860  0.00  0.00    +0.150 HD
ATOM     19  O   GLY A   8       5.769  19.308   8.849  0.00  0.00    -0.273 OA
BRANCH  17  20
ATOM     20  CA  PHE A   9       3.673  19.814  10.610  0.00  0.00    +0.153 C 
BRANCH  20  21
ATOM     21  C   PHE A   9       4.041  19.626  12.074  0.00  0.00    +0.241 C 
ATOM     22  N   ILE A  10       4.402  20.730  12.720  0.00  0.00    -0.298 N 
ATOM     23  H   ILE A  10       4.461  21.625  12.194  0.00  0.00    +0.150 HD
ATOM     24  O   PHE A   9       3.998  18.517  12.606  0.00  0.00    -0.273 OA
BRANCH  22  25
ATOM     25  CA  ILE A  10       4.717  20.723  14.143  0.00  0.00    +0.137 C 
BRANCH  25  26
ATOM     26  C   ILE A  10       3.994  21.912  14.752  0.00  0.00    +0.227 C 
ATOM     27  O   ILE A  10       3.742  22.910  14.074  0.00  0.00    -0.286 OA
ENDBRANCH  25  26
BRANCH  25  28
ATOM     28  CB  ILE A  10       6.235  20.866  14.437  0.00  0.00    +0.026 C 
ATOM     29  CG2 ILE A  10       6.962  19.588  14.042  0.00  0.00    +0.002 C 
BRANCH  28  30
ATOM     30  CG1 ILE A  10       6.801  22.095  13.725  0.00  0.00    +0.002 C 
ATOM     31  CD1 ILE A  10       8.216  22.462  14.167  0.00  0.00    +0.000 C 
ENDBRANCH  28  30
ENDBRANCH  25  28
ENDBRANCH  22  25
ENDBRANCH  20  21
BRANCH  20  32
ATOM     32  CB  PHE A   9       2.219  20.301  10.557  0.00  0.00    +0.055 C 
BRANCH  32  33
ATOM     33  CG  PHE A   9       1.786  20.831   9.220  0.00  0.00    -0.020 A 
ATOM     34  CD2 PHE A   9       1.525  22.188   9.055  0.00  0.00    -0.004 A 
ATOM     35  CE2 PHE A   9       1.082  22.689   7.833  0.00  0.00    -0.000 A 
ATOM     36  CZ  PHE A   9       0.897  21.824   6.758  0.00  0.00    -0.000 A 
ATOM     37  CE1 PHE A   9       1.158  20.469   6.911  0.00  0.00    -0.000 A 
ATOM     38  CD1 PHE A   9       1.602  19.977   8.138  0.00  0.00    -0.004 A 
ENDBRANCH  32  33
ENDBRANCH  20  32
ENDBRANCH  17  20
ENDBRANCH  15  16
ENDBRANCH  13  15
ENDBRANCH  10  11
ENDBRANCH   8  10
ENDBRANCH   5   6
BRANCH   5  39
ATOM     39  CB  ILE A   6      11.084  18.080   4.745  0.00  0.00    +0.027 C 
ATOM     40  CG2 ILE A   6      11.395  16.612   4.525  0.00  0.00    +0.002 C 
BRANCH  39  41
ATOM     41  CG1 ILE A   6      11.457  18.931   3.529  0.00  0.00    +0.002 C 
ATOM     42  CD1 ILE A   6      10.749  18.529   2.264  0.00  0.00    +0.000 C 
ENDBRANCH  39  41
ENDBRANCH   5  39
ENDBRANCH   3   5
BRANCH   1  43
ATOM     43  CA  GLY A   5       7.917  21.443   6.245  0.00  0.00    +0.176 C 
BRANCH  43  45
ATOM     44  C   GLY A   4       5.935  22.570   7.026  0.00  0.00    +0.243 C 
ATOM     45  N   GLY A   5       6.719  21.503   7.056  0.00  0.00    -0.295 N 
ATOM     46  H   GLY A   5       6.472  20.700   7.669  0.00  0.00    +0.150 HD
ATOM     47  O   GLY A   4       6.178  23.567   6.348  0.00  0.00    -0.273 OA
BRANCH  44  48
ATOM     48  CA  GLY A   4       4.706  22.493   7.901  0.00  0.00    +0.176 C 
BRANCH  48  51
ATOM     49  C   ILE A   3       4.361  23.753   9.916  0.00  0.00    +0.241 C 
ATOM     50  O   ILE A   3       4.605  22.773  10.608  0.00  0.00    -0.273 OA
ATOM     51  N   GLY A   4       4.391  23.726   8.591  0.00  0.00    -0.295 N 
ATOM     52  H   GLY A   4       4.188  24.590   8.048  0.00  0.00    +0.150 HD
BRANCH  49  53
ATOM     53  CA  ILE A   3       3.989  25.079  10.555  0.00  0.00    +0.149 C 
BRANCH  53  55
ATOM     54  C   MET A   2       1.921  25.256  11.785  0.00  0.00    +0.241 C 
ATOM     55  N   ILE A   3       3.169  24.806  11.729  0.00  0.00    -0.297 N 
ATOM     56  H   ILE A   3       3.561  24.259  12.522  0.00  0.00    +0.150 HD
ATOM     57  O   MET A   2       1.428  25.946  10.899  0.00  0.00    -0.273 OA
BRANCH  54  58
ATOM     58  CA  MET A   2       1.107  24.908  13.021  0.00  0.00    +0.149 C 
BRANCH  58  61
ATOM     59  C   LYS A   1       1.003  26.574  14.789  0.00  0.00    +0.238 C 
ATOM     60  O   LYS A   1       1.713  25.909  15.538  0.00  0.00    -0.274 OA
ATOM     61  N   MET A   2       0.647  26.171  13.577  0.00  0.00    -0.297 N 
ATOM     62  H   MET A   2       0.021  26.775  13.007  0.00  0.00    +0.150 HD
BRANCH  59  63
ATOM     63  CA  LYS A   1       0.466  27.923  15.229  0.00  0.00    +0.145 C 
BRANCH  63  64
ATOM     64  N   LYS A   1       0.422  27.954  16.680  0.00  0.00    -0.238 NA
ATOM     65  H   LYS A   1       1.105  27.386  17.221  0.00  0.00    +0.142 HD
ENDBRANCH  63  64
BRANCH  63  66
ATOM     66  CB  LYS A   1       1.380  29.037  14.706  0.00  0.00    +0.026 C 
BRANCH  66  67
ATOM     67  CG  LYS A   1       1.408  29.157  13.188  0.00  0.00    -0.000 C 
BRANCH  67  68
ATOM     68  CD  LYS A   1       2.279  30.315  12.731  0.00  0.00    -0.024 C 
BRANCH  68  69
ATOM     69  CE  LYS A   1       2.203  30.484  11.221  0.00  0.00    -0.086 C 
BRANCH  69  70
ATOM     70  NZ  LYS A   1       3.044  31.610  10.746  0.00  0.00    +0.380 N 
ATOM     71  HZ1 LYS A   1       2.721  32.494  11.189  0.00  0.00    -0.089 HD
ATOM     72  HZ2 LYS A   1       4.036  31.433  11.005  0.00  0.00    -0.089 HD
ATOM     73  HZ3 LYS A   1       2.963  31.690   9.712  0.00  0.00    -0.089 HD
ENDBRANCH  69  70
ENDBRANCH  68  69
ENDBRANCH  67  68
ENDBRANCH  66  67
ENDBRANCH  63  66
ENDBRANCH  59  63
ENDBRANCH  58  61
BRANCH  58  74
ATOM     74  CB  MET A   2      -0.084  24.048  12.601  0.00  0.00    +0.041 C 
BRANCH  74  75
ATOM     75  CG  MET A   2       0.163  22.570  12.671  0.00  0.00    +0.060 C 
BRANCH  75  76
ATOM     76  SD  MET A   2       0.194  22.022  14.388  0.00  0.00    -0.139 S 
ATOM     77  CE  MET A   2      -1.559  21.850  14.698  0.00  0.00    +0.069 C 
ENDBRANCH  75  76
ENDBRANCH  74  75
ENDBRANCH  58  74
ENDBRANCH  54  58
ENDBRANCH  53  55
BRANCH  53  78
ATOM     78  CB  ILE A   3       5.271  25.863  10.903  0.00  0.00    +0.027 C 
ATOM     79  CG2 ILE A   3       4.908  27.262  11.370  0.00  0.00    +0.002 C 
BRANCH  78  80
ATOM     80  CG1 ILE A   3       6.082  25.119  11.961  0.00  0.00    +0.002 C 
ATOM     81  CD1 ILE A   3       7.358  25.855  12.372  0.00  0.00    +0.000 C 
ENDBRANCH  78  80
ENDBRANCH  53  78
ENDBRANCH  49  53
ENDBRANCH  48  51
ENDBRANCH  44  48
ENDBRANCH  43  45
ENDBRANCH   1  43
TORSDOF 36
REMARK  Name = ../refined-set-2016/1d4h/1d4h_pocket.pdb
REMARK  248 active torsions:
REMARK  status: ('A' for Active; 'I' for Inactive)
REMARK    1  A    between atoms: _1  and  _3
REMARK    2  A    between atoms: _3  and  _4
REMARK    3  A    between atoms: _3  and  _6
REMARK    4  A    between atoms: _6  and  _7
REMARK    5  A    between atoms: _7  and  _8
REMARK    6  A    between atoms: _8  and  _9
REMARK    7  A    between atoms: _18  and  _20
REMARK    8  A    between atoms: _20  and  _21
REMARK    9  A    between atoms: _20  and  _23
REMARK   10  A    between atoms: _23  and  _24
REMARK   11  A    between atoms: _27  and  _29
REMARK   12  A    between atoms: _29  and  _30
REMARK   13  A    between atoms: _29  and  _32
REMARK   14  A    between atoms: _32  and  _33
REMARK   15  A    between atoms: _36  and  _38
REMARK   16  A    between atoms: _38  and  _39
REMARK   17  A    between atoms: _38  and  _41
REMARK   18  A    between atoms: _41  and  _42
REMARK   19  A    between atoms: _45  and  _47
REMARK   20  A    between atoms: _47  and  _48
REMARK   21  A    between atoms: _47  and  _50
REMARK   22  A    between atoms: _50  and  _51
REMARK   23  A    between atoms: _54  and  _56
REMARK   24  A    between atoms: _56  and  _57
REMARK   25  A    between atoms: _56  and  _59
REMARK   26  A    between atoms: _59  and  _60
REMARK   27  A    between atoms: _63  and  _65
REMARK   28  A    between atoms: _65  and  _66
REMARK   29  A    between atoms: _68  and  _70
REMARK   30  A    between atoms: _70  and  _71
REMARK   31  A    between atoms: _74  and  _76
REMARK   32  A    between atoms: _76  and  _77
REMARK   33  A    between atoms: _76  and  _79
REMARK   34  A    between atoms: _79  and  _80
REMARK   35  A    between atoms: _83  and  _85
REMARK   36  A    between atoms: _85  and  _86
REMARK   37  A    between atoms: _85  and  _88
REMARK   38  A    between atoms: _88  and  _89
REMARK   39  A    between atoms: _92  and  _94
REMARK   40  A    between atoms: _94  and  _95
REMARK   41  A    between atoms: _94  and  _97
REMARK   42  A    between atoms: _97  and  _98
REMARK   43  A    between atoms: _101  and  _103
REMARK   44  A    between atoms: _103  and  _104
REMARK   45  A    between atoms: _103  and  _106
REMARK   46  A    between atoms: _109  and  _111
REMARK   47  A    between atoms: _111  and  _112
REMARK   48  A    between atoms: _111  and  _114
REMARK   49  A    between atoms: _114  and  _115
REMARK   50  A    between atoms: _118  and  _120
REMARK   51  A    between atoms: _120  and  _121
REMARK   52  A    between atoms: _120  and  _123
REMARK   53  A    between atoms: _123  and  _124
REMARK   54  A    between atoms: _124  and  _125
REMARK   55  A    between atoms: _125  and  _126
REMARK   56  A    between atoms: _126  and  _127
REMARK   57  A    between atoms: _131  and  _133
REMARK   58  A    between atoms: _133  and  _134
REMARK   59  A    between atoms: _133  and  _136
REMARK   60  A    between atoms: _136  and  _137
REMARK   61  A    between atoms: _137  and  _138
REMARK   62  A    between atoms: _140  and  _142
REMARK   63  A    between atoms: _142  and  _143
REMARK   64  A    between atoms: _142  and  _145
REMARK   65  A    between atoms: _145  and  _146
REMARK   66  A    between atoms: _149  and  _151
REMARK   67  A    between atoms: _151  and  _152
REMARK   68  A    between atoms: _154  and  _156
REMARK   69  A    between atoms: _156  and  _157
REMARK   70  A    between atoms: _159  and  _161
REMARK   71  A    between atoms: _161  and  _162
REMARK   72  A    between atoms: _161  and  _164
REMARK   73  A    between atoms: _164  and  _165
REMARK   74  A    between atoms: _168  and  _170
REMARK   75  A    between atoms: _170  and  _171
REMARK   76  A    between atoms: _173  and  _175
REMARK   77  A    between atoms: _175  and  _176
REMARK   78  A    between atoms: _178  and  _180
REMARK   79  A    between atoms: _180  and  _181
REMARK   80  A    between atoms: _180  and  _183
REMARK   81  A    between atoms: _183  and  _184
REMARK   82  A    between atoms: _190  and  _192
REMARK   83  A    between atoms: _192  and  _193
REMARK   84  A    between atoms: _192  and  _195
REMARK   85  A    between atoms: _195  and  _196
REMARK   86  A    between atoms: _199  and  _201
REMARK   87  A    between atoms: _201  and  _202
REMARK   88  A    between atoms: _201  and  _204
REMARK   89  A    between atoms: _207  and  _209
REMARK   90  A    between atoms: _209  and  _210
REMARK   91  A    between atoms: _209  and  _212
REMARK   92  A    between atoms: _212  and  _213
REMARK   93  A    between atoms: _216  and  _218
REMARK   94  A    between atoms: _218  and  _219
REMARK   95  A    between atoms: _218  and  _221
REMARK   96  A    between atoms: _221  and  _222
REMARK   97  A    between atoms: _226  and  _227
REMARK   98  A    between atoms: _232  and  _234
REMARK   99  A    between atoms: _234  and  _235
REMARK  100  A    between atoms: _234  and  _237
REMARK  101  A    between atoms: _240  and  _242
REMARK  102  A    between atoms: _242  and  _243
REMARK  103  A    between atoms: _242  and  _245
REMARK  104  A    between atoms: _245  and  _246
REMARK  105  A    between atoms: _251  and  _253
REMARK  106  A    between atoms: _253  and  _254
REMARK  107  A    between atoms: _253  and  _256
REMARK  108  A    between atoms: _256  and  _257
REMARK  109  A    between atoms: _260  and  _262
REMARK  110  A    between atoms: _262  and  _263
REMARK  111  A    between atoms: _262  and  _265
REMARK  112  A    between atoms: _265  and  _266
REMARK  113  A    between atoms: _269  and  _271
REMARK  114  A    between atoms: _271  and  _272
REMARK  115  A    between atoms: _274  and  _276
REMARK  116  A    between atoms: _276  and  _277
REMARK  117  A    between atoms: _276  and  _279
REMARK  118  A    between atoms: _279  and  _280
REMARK  119  A    between atoms: _280  and  _281
REMARK  120  A    between atoms: _281  and  _282
REMARK  121  A    between atoms: _291  and  _293
REMARK  122  A    between atoms: _293  and  _294
REMARK  123  A    between atoms: _293  and  _296
REMARK  124  A    between atoms: _296  and  _297
REMARK  125  A    between atoms: _302  and  _304
REMARK  126  A    between atoms: _304  and  _305
REMARK  127  A    between atoms: _304  and  _307
REMARK  128  A    between atoms: _307  and  _308
REMARK  129  A    between atoms: _308  and  _309
REMARK  130  A    between atoms: _309  and  _310
REMARK  131  A    between atoms: _319  and  _321
REMARK  132  A    between atoms: _321  and  _322
REMARK  133  A    between atoms: _321  and  _324
REMARK  134  A    between atoms: _324  and  _325
REMARK  135  A    between atoms: _328  and  _330
REMARK  136  A    between atoms: _330  and  _331
REMARK  137  A    between atoms: _330  and  _333
REMARK  138  A    between atoms: _333  and  _334
REMARK  139  A    between atoms: _337  and  _339
REMARK  140  A    between atoms: _339  and  _340
REMARK  141  A    between atoms: _339  and  _342
REMARK  142  A    between atoms: _342  and  _343
REMARK  143  A    between atoms: _346  and  _348
REMARK  144  A    between atoms: _348  and  _349
REMARK  145  A    between atoms: _348  and  _351
REMARK  146  A    between atoms: _351  and  _352
REMARK  147  A    between atoms: _355  and  _357
REMARK  148  A    between atoms: _357  and  _358
REMARK  149  A    between atoms: _357  and  _360
REMARK  150  A    between atoms: _360  and  _361
REMARK  151  A    between atoms: _364  and  _366
REMARK  152  A    between atoms: _366  and  _367
REMARK  153  A    between atoms: _369  and  _371
REMARK  154  A    between atoms: _371  and  _372
REMARK  155  A    between atoms: _375  and  _377
REMARK  156  A    between atoms: _377  and  _378
REMARK  157  A    between atoms: _377  and  _380
REMARK  158  A    between atoms: _380  and  _381
REMARK  159  A    between atoms: _384  and  _386
REMARK  160  A    between atoms: _386  and  _387
REMARK  161  A    between atoms: _386  and  _389
REMARK  162  A    between atoms: _389  and  _390
REMARK  163  A    between atoms: _393  and  _395
REMARK  164  A    between atoms: _395  and  _396
REMARK  165  A    between atoms: _395  and  _398
REMARK  166  A    between atoms: _398  and  _399
REMARK  167  A    between atoms: _402  and  _404
REMARK  168  A    between atoms: _404  and  _405
REMARK  169  A    between atoms: _404  and  _407
REMARK  170  A    between atoms: _410  and  _412
REMARK  171  A    between atoms: _412  and  _413
REMARK  172  A    between atoms: _412  and  _415
REMARK  173  A    between atoms: _415  and  _416
REMARK  174  A    between atoms: _419  and  _421
REMARK  175  A    between atoms: _421  and  _422
REMARK  176  A    between atoms: _421  and  _424
REMARK  177  A    between atoms: _424  and  _425
REMARK  178  A    between atoms: _425  and  _426
REMARK  179  A    between atoms: _426  and  _427
REMARK  180  A    between atoms: _427  and  _428
REMARK  181  A    between atoms: _432  and  _434
REMARK  182  A    between atoms: _434  and  _435
REMARK  183  A    between atoms: _434  and  _437
REMARK  184  A    between atoms: _437  and  _438
REMARK  185  A    between atoms: _438  and  _439
REMARK  186  A    between atoms: _441  and  _443
REMARK  187  A    between atoms: _443  and  _444
REMARK  188  A    between atoms: _443  and  _446
REMARK  189  A    between atoms: _446  and  _447
REMARK  190  A    between atoms: _450  and  _452
REMARK  191  A    between atoms: _452  and  _453
REMARK  192  A    between atoms: _455  and  _457
REMARK  193  A    between atoms: _457  and  _458
REMARK  194  A    between atoms: _460  and  _462
REMARK  195  A    between atoms: _462  and  _463
REMARK  196  A    between atoms: _462  and  _465
REMARK  197  A    between atoms: _465  and  _466
REMARK  198  A    between atoms: _469  and  _471
REMARK  199  A    between atoms: _471  and  _472
REMARK  200  A    between atoms: _474  and  _476
REMARK  201  A    between atoms: _476  and  _477
REMARK  202  A    between atoms: _479  and  _481
REMARK  203  A    between atoms: _481  and  _482
REMARK  204  A    between atoms: _481  and  _484
REMARK  205  A    between atoms: _484  and  _485
REMARK  206  A    between atoms: _491  and  _493
REMARK  207  A    between atoms: _493  and  _494
REMARK  208  A    between atoms: _493  and  _496
REMARK  209  A    between atoms: _496  and  _497
REMARK  210  A    between atoms: _500  and  _502
REMARK  211  A    between atoms: _502  and  _503
REMARK  212  A    between atoms: _502  and  _505
REMARK  213  A    between atoms: _508  and  _510
REMARK  214  A    between atoms: _510  and  _511
REMARK  215  A    between atoms: _510  and  _513
REMARK  216  A    between atoms: _513  and  _514
REMARK  217  A    between atoms: _517  and  _519
REMARK  218  A    between atoms: _519  and  _520
REMARK  219  A    between atoms: _519  and  _522
REMARK  220  A    between atoms: _522  and  _523
REMARK  221  A    between atoms: _527  and  _528
REMARK  222  A    between atoms: _533  and  _535
REMARK  223  A    between atoms: _535  and  _536
REMARK  224  A    between atoms: _535  and  _538
REMARK  225  A    between atoms: _541  and  _543
REMARK  226  A    between atoms: _543  and  _544
REMARK  227  A    between atoms: _543  and  _546
REMARK  228  A    between atoms: _546  and  _547
REMARK  229  A    between atoms: _552  and  _554
REMARK  230  A    between atoms: _554  and  _555
REMARK  231  A    between atoms: _554  and  _557
REMARK  232  A    between atoms: _557  and  _558
REMARK  233  A    between atoms: _561  and  _563
REMARK  234  A    between atoms: _563  and  _564
REMARK  235  A    between atoms: _563  and  _566
REMARK  236  A    between atoms: _566  and  _567
REMARK  237  A    between atoms: _570  and  _572
REMARK  238  A    between atoms: _572  and  _573
REMARK  239  A    between atoms: _575  and  _577
REMARK  240  A    between atoms: _577  and  _578
REMARK  241  A    between atoms: _577  and  _580
REMARK  242  A    between atoms: _580  and  _581
REMARK  243  A    between atoms: _581  and  _582
REMARK  244  A    between atoms: _582  and  _583
REMARK  245  A    between atoms: _592  and  _594
REMARK  246  A    between atoms: _594  and  _595
REMARK  247  A    between atoms: _594  and  _597
REMARK  248  A    between atoms: _597  and  _598
REMARK                            x       y       z     vdW  Elec       q    Type
REMARK                         _______ _______ _______ _____ _____    ______ ____
ROOT
ATOM      1  CA  VAL A   1       4.841  25.999  17.748  0.00  0.00    +0.133 C 
ENDROOT
BRANCH   1   2
ATOM      2  CB  VAL A   1       5.756  26.608  16.652  0.00  0.00    +0.023 C 
ATOM      3  CG2 VAL A   1       6.611  25.516  16.012  0.00  0.00    +0.002 C 
ATOM      4  CG1 VAL A   1       4.907  27.301  15.597  0.00  0.00    +0.002 C 
ENDBRANCH   1   2
BRANCH   1   5
ATOM      5  N   VAL A   1       3.889  25.058  17.174  0.00  0.00    -0.239 NA
ATOM      6  H   VAL A   1       3.103  25.417  16.595  0.00  0.00    +0.142 HD
ENDBRANCH   1   5
BRANCH   1   7
ATOM      7  C   VAL A   1       4.113  27.135  18.450  0.00  0.00    +0.224 C 
ATOM      8  O   VAL A   1       2.903  27.293  18.299  0.00  0.00    -0.287 OA
ENDBRANCH   1   7
TORSDOF 3
REMARK  Name = ../refined-set-2016/1d4h/1d4h_pocket.pdb
REMARK  248 active torsions:
REMARK  status: ('A' for Active; 'I' for Inactive)
REMARK    1  A    between atoms: _1  and  _3
REMARK    2  A    between atoms: _3  and  _4
REMARK    3  A    between atoms: _3  and  _6
REMARK    4  A    between atoms: _6  and  _7
REMARK    5  A    between atoms: _7  and  _8
REMARK    6  A    between atoms: _8  and  _9
REMARK    7  A    between atoms: _18  and  _20
REMARK    8  A    between atoms: _20  and  _21
REMARK    9  A    between atoms: _20  and  _23
REMARK   10  A    between atoms: _23  and  _24
REMARK   11  A    between atoms: _27  and  _29
REMARK   12  A    between atoms: _29  and  _30
REMARK   13  A    between atoms: _29  and  _32
REMARK   14  A    between atoms: _32  and  _33
REMARK   15  A    between atoms: _36  and  _38
REMARK   16  A    between atoms: _38  and  _39
REMARK   17  A    between atoms: _38  and  _41
REMARK   18  A    between atoms: _41  and  _42
REMARK   19  A    between atoms: _45  and  _47
REMARK   20  A    between atoms: _47  and  _48
REMARK   21  A    between atoms: _47  and  _50
REMARK   22  A    between atoms: _50  and  _51
REMARK   23  A    between atoms: _54  and  _56
REMARK   24  A    between atoms: _56  and  _57
REMARK   25  A    between atoms: _56  and  _59
REMARK   26  A    between atoms: _59  and  _60
REMARK   27  A    between atoms: _63  and  _65
REMARK   28  A    between atoms: _65  and  _66
REMARK   29  A    between atoms: _68  and  _70
REMARK   30  A    between atoms: _70  and  _71
REMARK   31  A    between atoms: _74  and  _76
REMARK   32  A    between atoms: _76  and  _77
REMARK   33  A    between atoms: _76  and  _79
REMARK   34  A    between atoms: _79  and  _80
REMARK   35  A    between atoms: _83  and  _85
REMARK   36  A    between atoms: _85  and  _86
REMARK   37  A    between atoms: _85  and  _88
REMARK   38  A    between atoms: _88  and  _89
REMARK   39  A    between atoms: _92  and  _94
REMARK   40  A    between atoms: _94  and  _95
REMARK   41  A    between atoms: _94  and  _97
REMARK   42  A    between atoms: _97  and  _98
REMARK   43  A    between atoms: _101  and  _103
REMARK   44  A    between atoms: _103  and  _104
REMARK   45  A    between atoms: _103  and  _106
REMARK   46  A    between atoms: _109  and  _111
REMARK   47  A    between atoms: _111  and  _112
REMARK   48  A    between atoms: _111  and  _114
REMARK   49  A    between atoms: _114  and  _115
REMARK   50  A    between atoms: _118  and  _120
REMARK   51  A    between atoms: _120  and  _121
REMARK   52  A    between atoms: _120  and  _123
REMARK   53  A    between atoms: _123  and  _124
REMARK   54  A    between atoms: _124  and  _125
REMARK   55  A    between atoms: _125  and  _126
REMARK   56  A    between atoms: _126  and  _127
REMARK   57  A    between atoms: _131  and  _133
REMARK   58  A    between atoms: _133  and  _134
REMARK   59  A    between atoms: _133  and  _136
REMARK   60  A    between atoms: _136  and  _137
REMARK   61  A    between atoms: _137  and  _138
REMARK   62  A    between atoms: _140  and  _142
REMARK   63  A    between atoms: _142  and  _143
REMARK   64  A    between atoms: _142  and  _145
REMARK   65  A    between atoms: _145  and  _146
REMARK   66  A    between atoms: _149  and  _151
REMARK   67  A    between atoms: _151  and  _152
REMARK   68  A    between atoms: _154  and  _156
REMARK   69  A    between atoms: _156  and  _157
REMARK   70  A    between atoms: _159  and  _161
REMARK   71  A    between atoms: _161  and  _162
REMARK   72  A    between atoms: _161  and  _164
REMARK   73  A    between atoms: _164  and  _165
REMARK   74  A    between atoms: _168  and  _170
REMARK   75  A    between atoms: _170  and  _171
REMARK   76  A    between atoms: _173  and  _175
REMARK   77  A    between atoms: _175  and  _176
REMARK   78  A    between atoms: _178  and  _180
REMARK   79  A    between atoms: _180  and  _181
REMARK   80  A    between atoms: _180  and  _183
REMARK   81  A    between atoms: _183  and  _184
REMARK   82  A    between atoms: _190  and  _192
REMARK   83  A    between atoms: _192  and  _193
REMARK   84  A    between atoms: _192  and  _195
REMARK   85  A    between atoms: _195  and  _196
REMARK   86  A    between atoms: _199  and  _201
REMARK   87  A    between atoms: _201  and  _202
REMARK   88  A    between atoms: _201  and  _204
REMARK   89  A    between atoms: _207  and  _209
REMARK   90  A    between atoms: _209  and  _210
REMARK   91  A    between atoms: _209  and  _212
REMARK   92  A    between atoms: _212  and  _213
REMARK   93  A    between atoms: _216  and  _218
REMARK   94  A    between atoms: _218  and  _219
REMARK   95  A    between atoms: _218  and  _221
REMARK   96  A    between atoms: _221  and  _222
REMARK   97  A    between atoms: _226  and  _227
REMARK   98  A    between atoms: _232  and  _234
REMARK   99  A    between atoms: _234  and  _235
REMARK  100  A    between atoms: _234  and  _237
REMARK  101  A    between atoms: _240  and  _242
REMARK  102  A    between atoms: _242  and  _243
REMARK  103  A    between atoms: _242  and  _245
REMARK  104  A    between atoms: _245  and  _246
REMARK  105  A    between atoms: _251  and  _253
REMARK  106  A    between atoms: _253  and  _254
REMARK  107  A    between atoms: _253  and  _256
REMARK  108  A    between atoms: _256  and  _257
REMARK  109  A    between atoms: _260  and  _262
REMARK  110  A    between atoms: _262  and  _263
REMARK  111  A    between atoms: _262  and  _265
REMARK  112  A    between atoms: _265  and  _266
REMARK  113  A    between atoms: _269  and  _271
REMARK  114  A    between atoms: _271  and  _272
REMARK  115  A    between atoms: _274  and  _276
REMARK  116  A    between atoms: _276  and  _277
REMARK  117  A    between atoms: _276  and  _279
REMARK  118  A    between atoms: _279  and  _280
REMARK  119  A    between atoms: _280  and  _281
REMARK  120  A    between atoms: _281  and  _282
REMARK  121  A    between atoms: _291  and  _293
REMARK  122  A    between atoms: _293  and  _294
REMARK  123  A    between atoms: _293  and  _296
REMARK  124  A    between atoms: _296  and  _297
REMARK  125  A    between atoms: _302  and  _304
REMARK  126  A    between atoms: _304  and  _305
REMARK  127  A    between atoms: _304  and  _307
REMARK  128  A    between atoms: _307  and  _308
REMARK  129  A    between atoms: _308  and  _309
REMARK  130  A    between atoms: _309  and  _310
REMARK  131  A    between atoms: _319  and  _321
REMARK  132  A    between atoms: _321  and  _322
REMARK  133  A    between atoms: _321  and  _324
REMARK  134  A    between atoms: _324  and  _325
REMARK  135  A    between atoms: _328  and  _330
REMARK  136  A    between atoms: _330  and  _331
REMARK  137  A    between atoms: _330  and  _333
REMARK  138  A    between atoms: _333  and  _334
REMARK  139  A    between atoms: _337  and  _339
REMARK  140  A    between atoms: _339  and  _340
REMARK  141  A    between atoms: _339  and  _342
REMARK  142  A    between atoms: _342  and  _343
REMARK  143  A    between atoms: _346  and  _348
REMARK  144  A    between atoms: _348  and  _349
REMARK  145  A    between atoms: _348  and  _351
REMARK  146  A    between atoms: _351  and  _352
REMARK  147  A    between atoms: _355  and  _357
REMARK  148  A    between atoms: _357  and  _358
REMARK  149  A    between atoms: _357  and  _360
REMARK  150  A    between atoms: _360  and  _361
REMARK  151  A    between atoms: _364  and  _366
REMARK  152  A    between atoms: _366  and  _367
REMARK  153  A    between atoms: _369  and  _371
REMARK  154  A    between atoms: _371  and  _372
REMARK  155  A    between atoms: _375  and  _377
REMARK  156  A    between atoms: _377  and  _378
REMARK  157  A    between atoms: _377  and  _380
REMARK  158  A    between atoms: _380  and  _381
REMARK  159  A    between atoms: _384  and  _386
REMARK  160  A    between atoms: _386  and  _387
REMARK  161  A    between atoms: _386  and  _389
REMARK  162  A    between atoms: _389  and  _390
REMARK  163  A    between atoms: _393  and  _395
REMARK  164  A    between atoms: _395  and  _396
REMARK  165  A    between atoms: _395  and  _398
REMARK  166  A    between atoms: _398  and  _399
REMARK  167  A    between atoms: _402  and  _404
REMARK  168  A    between atoms: _404  and  _405
REMARK  169  A    between atoms: _404  and  _407
REMARK  170  A    between atoms: _410  and  _412
REMARK  171  A    between atoms: _412  and  _413
REMARK  172  A    between atoms: _412  and  _415
REMARK  173  A    between atoms: _415  and  _416
REMARK  174  A    between atoms: _419  and  _421
REMARK  175  A    between atoms: _421  and  _422
REMARK  176  A    between atoms: _421  and  _424
REMARK  177  A    between atoms: _424  and  _425
REMARK  178  A    between atoms: _425  and  _426
REMARK  179  A    between atoms: _426  and  _427
REMARK  180  A    between atoms: _427  and  _428
REMARK  181  A    between atoms: _432  and  _434
REMARK  182  A    between atoms: _434  and  _435
REMARK  183  A    between atoms: _434  and  _437
REMARK  184  A    between atoms: _437  and  _438
REMARK  185  A    between atoms: _438  and  _439
REMARK  186  A    between atoms: _441  and  _443
REMARK  187  A    between atoms: _443  and  _444
REMARK  188  A    between atoms: _443  and  _446
REMARK  189  A    between atoms: _446  and  _447
REMARK  190  A    between atoms: _450  and  _452
REMARK  191  A    between atoms: _452  and  _453
REMARK  192  A    between atoms: _455  and  _457
REMARK  193  A    between atoms: _457  and  _458
REMARK  194  A    between atoms: _460  and  _462
REMARK  195  A    between atoms: _462  and  _463
REMARK  196  A    between atoms: _462  and  _465
REMARK  197  A    between atoms: _465  and  _466
REMARK  198  A    between atoms: _469  and  _471
REMARK  199  A    between atoms: _471  and  _472
REMARK  200  A    between atoms: _474  and  _476
REMARK  201  A    between atoms: _476  and  _477
REMARK  202  A    between atoms: _479  and  _481
REMARK  203  A    between atoms: _481  and  _482
REMARK  204  A    between atoms: _481  and  _484
REMARK  205  A    between atoms: _484  and  _485
REMARK  206  A    between atoms: _491  and  _493
REMARK  207  A    between atoms: _493  and  _494
REMARK  208  A    between atoms: _493  and  _496
REMARK  209  A    between atoms: _496  and  _497
REMARK  210  A    between atoms: _500  and  _502
REMARK  211  A    between atoms: _502  and  _503
REMARK  212  A    between atoms: _502  and  _505
REMARK  213  A    between atoms: _508  and  _510
REMARK  214  A    between atoms: _510  and  _511
REMARK  215  A    between atoms: _510  and  _513
REMARK  216  A    between atoms: _513  and  _514
REMARK  217  A    between atoms: _517  and  _519
REMARK  218  A    between atoms: _519  and  _520
REMARK  219  A    between atoms: _519  and  _522
REMARK  220  A    between atoms: _522  and  _523
REMARK  221  A    between atoms: _527  and  _528
REMARK  222  A    between atoms: _533  and  _535
REMARK  223  A    between atoms: _535  and  _536
REMARK  224  A    between atoms: _535  and  _538
REMARK  225  A    between atoms: _541  and  _543
REMARK  226  A    between atoms: _543  and  _544
REMARK  227  A    between atoms: _543  and  _546
REMARK  228  A    between atoms: _546  and  _547
REMARK  229  A    between atoms: _552  and  _554
REMARK  230  A    between atoms: _554  and  _555
REMARK  231  A    between atoms: _554  and  _557
REMARK  232  A    between atoms: _557  and  _558
REMARK  233  A    between atoms: _561  and  _563
REMARK  234  A    between atoms: _563  and  _564
REMARK  235  A    between atoms: _563  and  _566
REMARK  236  A    between atoms: _566  and  _567
REMARK  237  A    between atoms: _570  and  _572
REMARK  238  A    between atoms: _572  and  _573
REMARK  239  A    between atoms: _575  and  _577
REMARK  240  A    between atoms: _577  and  _578
REMARK  241  A    between atoms: _577  and  _580
REMARK  242  A    between atoms: _580  and  _581
REMARK  243  A    between atoms: _581  and  _582
REMARK  244  A    between atoms: _582  and  _583
REMARK  245  A    between atoms: _592  and  _594
REMARK  246  A    between atoms: _594  and  _595
REMARK  247  A    between atoms: _594  and  _597
REMARK  248  A    between atoms: _597  and  _598
REMARK                            x       y       z     vdW  Elec       q    Type
REMARK                         _______ _______ _______ _____ _____    ______ ____
ROOT
ATOM      1  CA  LEU A   1       8.235  30.740  16.562  0.00  0.00    +0.133 C 
ENDROOT
BRANCH   1   2
ATOM      2  N   LEU A   1       9.014  31.910  16.190  0.00  0.00    -0.239 NA
ATOM      3  H   LEU A   1       9.698  31.844  15.410  0.00  0.00    +0.142 HD
ENDBRANCH   1   2
BRANCH   1   4
ATOM      4  C   LEU A   1       9.103  29.841  17.435  0.00  0.00    +0.224 C 
ATOM      5  O   LEU A   1      10.292  29.674  17.176  0.00  0.00    -0.287 OA
ENDBRANCH   1   4
BRANCH   1   6
ATOM      6  CB  LEU A   1       7.795  29.975  15.313  0.00  0.00    +0.025 C 
BRANCH   6   7
ATOM      7  CG  LEU A   1       7.111  30.829  14.238  0.00  0.00    +0.002 C 
ATOM      8  CD2 LEU A   1       5.849  31.452  14.807  0.00  0.00    +0.000 C 
ATOM      9  CD1 LEU A   1       6.791  29.971  13.021  0.00  0.00    +0.000 C 
ENDBRANCH   6   7
ENDBRANCH   1   6
TORSDOF 4
REMARK  Name = ../refined-set-2016/1d4h/1d4h_pocket.pdb
REMARK  248 active torsions:
REMARK  status: ('A' for Active; 'I' for Inactive)
REMARK    1  A    between atoms: _1  and  _3
REMARK    2  A    between atoms: _3  and  _4
REMARK    3  A    between atoms: _3  and  _6
REMARK    4  A    between atoms: _6  and  _7
REMARK    5  A    between atoms: _7  and  _8
REMARK    6  A    between atoms: _8  and  _9
REMARK    7  A    between atoms: _18  and  _20
REMARK    8  A    between atoms: _20  and  _21
REMARK    9  A    between atoms: _20  and  _23
REMARK   10  A    between atoms: _23  and  _24
REMARK   11  A    between atoms: _27  and  _29
REMARK   12  A    between atoms: _29  and  _30
REMARK   13  A    between atoms: _29  and  _32
REMARK   14  A    between atoms: _32  and  _33
REMARK   15  A    between atoms: _36  and  _38
REMARK   16  A    between atoms: _38  and  _39
REMARK   17  A    between atoms: _38  and  _41
REMARK   18  A    between atoms: _41  and  _42
REMARK   19  A    between atoms: _45  and  _47
REMARK   20  A    between atoms: _47  and  _48
REMARK   21  A    between atoms: _47  and  _50
REMARK   22  A    between atoms: _50  and  _51
REMARK   23  A    between atoms: _54  and  _56
REMARK   24  A    between atoms: _56  and  _57
REMARK   25  A    between atoms: _56  and  _59
REMARK   26  A    between atoms: _59  and  _60
REMARK   27  A    between atoms: _63  and  _65
REMARK   28  A    between atoms: _65  and  _66
REMARK   29  A    between atoms: _68  and  _70
REMARK   30  A    between atoms: _70  and  _71
REMARK   31  A    between atoms: _74  and  _76
REMARK   32  A    between atoms: _76  and  _77
REMARK   33  A    between atoms: _76  and  _79
REMARK   34  A    between atoms: _79  and  _80
REMARK   35  A    between atoms: _83  and  _85
REMARK   36  A    between atoms: _85  and  _86
REMARK   37  A    between atoms: _85  and  _88
REMARK   38  A    between atoms: _88  and  _89
REMARK   39  A    between atoms: _92  and  _94
REMARK   40  A    between atoms: _94  and  _95
REMARK   41  A    between atoms: _94  and  _97
REMARK   42  A    between atoms: _97  and  _98
REMARK   43  A    between atoms: _101  and  _103
REMARK   44  A    between atoms: _103  and  _104
REMARK   45  A    between atoms: _103  and  _106
REMARK   46  A    between atoms: _109  and  _111
REMARK   47  A    between atoms: _111  and  _112
REMARK   48  A    between atoms: _111  and  _114
REMARK   49  A    between atoms: _114  and  _115
REMARK   50  A    between atoms: _118  and  _120
REMARK   51  A    between atoms: _120  and  _121
REMARK   52  A    between atoms: _120  and  _123
REMARK   53  A    between atoms: _123  and  _124
REMARK   54  A    between atoms: _124  and  _125
REMARK   55  A    between atoms: _125  and  _126
REMARK   56  A    between atoms: _126  and  _127
REMARK   57  A    between atoms: _131  and  _133
REMARK   58  A    between atoms: _133  and  _134
REMARK   59  A    between atoms: _133  and  _136
REMARK   60  A    between atoms: _136  and  _137
REMARK   61  A    between atoms: _137  and  _138
REMARK   62  A    between atoms: _140  and  _142
REMARK   63  A    between atoms: _142  and  _143
REMARK   64  A    between atoms: _142  and  _145
REMARK   65  A    between atoms: _145  and  _146
REMARK   66  A    between atoms: _149  and  _151
REMARK   67  A    between atoms: _151  and  _152
REMARK   68  A    between atoms: _154  and  _156
REMARK   69  A    between atoms: _156  and  _157
REMARK   70  A    between atoms: _159  and  _161
REMARK   71  A    between atoms: _161  and  _162
REMARK   72  A    between atoms: _161  and  _164
REMARK   73  A    between atoms: _164  and  _165
REMARK   74  A    between atoms: _168  and  _170
REMARK   75  A    between atoms: _170  and  _171
REMARK   76  A    between atoms: _173  and  _175
REMARK   77  A    between atoms: _175  and  _176
REMARK   78  A    between atoms: _178  and  _180
REMARK   79  A    between atoms: _180  and  _181
REMARK   80  A    between atoms: _180  and  _183
REMARK   81  A    between atoms: _183  and  _184
REMARK   82  A    between atoms: _190  and  _192
REMARK   83  A    between atoms: _192  and  _193
REMARK   84  A    between atoms: _192  and  _195
REMARK   85  A    between atoms: _195  and  _196
REMARK   86  A    between atoms: _199  and  _201
REMARK   87  A    between atoms: _201  and  _202
REMARK   88  A    between atoms: _201  and  _204
REMARK   89  A    between atoms: _207  and  _209
REMARK   90  A    between atoms: _209  and  _210
REMARK   91  A    between atoms: _209  and  _212
REMARK   92  A    between atoms: _212  and  _213
REMARK   93  A    between atoms: _216  and  _218
REMARK   94  A    between atoms: _218  and  _219
REMARK   95  A    between atoms: _218  and  _221
REMARK   96  A    between atoms: _221  and  _222
REMARK   97  A    between atoms: _226  and  _227
REMARK   98  A    between atoms: _232  and  _234
REMARK   99  A    between atoms: _234  and  _235
REMARK  100  A    between atoms: _234  and  _237
REMARK  101  A    between atoms: _240  and  _242
REMARK  102  A    between atoms: _242  and  _243
REMARK  103  A    between atoms: _242  and  _245
REMARK  104  A    between atoms: _245  and  _246
REMARK  105  A    between atoms: _251  and  _253
REMARK  106  A    between atoms: _253  and  _254
REMARK  107  A    between atoms: _253  and  _256
REMARK  108  A    between atoms: _256  and  _257
REMARK  109  A    between atoms: _260  and  _262
REMARK  110  A    between atoms: _262  and  _263
REMARK  111  A    between atoms: _262  and  _265
REMARK  112  A    between atoms: _265  and  _266
REMARK  113  A    between atoms: _269  and  _271
REMARK  114  A    between atoms: _271  and  _272
REMARK  115  A    between atoms: _274  and  _276
REMARK  116  A    between atoms: _276  and  _277
REMARK  117  A    between atoms: _276  and  _279
REMARK  118  A    between atoms: _279  and  _280
REMARK  119  A    between atoms: _280  and  _281
REMARK  120  A    between atoms: _281  and  _282
REMARK  121  A    between atoms: _291  and  _293
REMARK  122  A    between atoms: _293  and  _294
REMARK  123  A    between atoms: _293  and  _296
REMARK  124  A    between atoms: _296  and  _297
REMARK  125  A    between atoms: _302  and  _304
REMARK  126  A    between atoms: _304  and  _305
REMARK  127  A    between atoms: _304  and  _307
REMARK  128  A    between atoms: _307  and  _308
REMARK  129  A    between atoms: _308  and  _309
REMARK  130  A    between atoms: _309  and  _310
REMARK  131  A    between atoms: _319  and  _321
REMARK  132  A    between atoms: _321  and  _322
REMARK  133  A    between atoms: _321  and  _324
REMARK  134  A    between atoms: _324  and  _325
REMARK  135  A    between atoms: _328  and  _330
REMARK  136  A    between atoms: _330  and  _331
REMARK  137  A    between atoms: _330  and  _333
REMARK  138  A    between atoms: _333  and  _334
REMARK  139  A    between atoms: _337  and  _339
REMARK  140  A    between atoms: _339  and  _340
REMARK  141  A    between atoms: _339  and  _342
REMARK  142  A    between atoms: _342  and  _343
REMARK  143  A    between atoms: _346  and  _348
REMARK  144  A    between atoms: _348  and  _349
REMARK  145  A    between atoms: _348  and  _351
REMARK  146  A    between atoms: _351  and  _352
REMARK  147  A    between atoms: _355  and  _357
REMARK  148  A    between atoms: _357  and  _358
REMARK  149  A    between atoms: _357  and  _360
REMARK  150  A    between atoms: _360  and  _361
REMARK  151  A    between atoms: _364  and  _366
REMARK  152  A    between atoms: _366  and  _367
REMARK  153  A    between atoms: _369  and  _371
REMARK  154  A    between atoms: _371  and  _372
REMARK  155  A    between atoms: _375  and  _377
REMARK  156  A    between atoms: _377  and  _378
REMARK  157  A    between atoms: _377  and  _380
REMARK  158  A    between atoms: _380  and  _381
REMARK  159  A    between atoms: _384  and  _386
REMARK  160  A    between atoms: _386  and  _387
REMARK  161  A    between atoms: _386  and  _389
REMARK  162  A    between atoms: _389  and  _390
REMARK  163  A    between atoms: _393  and  _395
REMARK  164  A    between atoms: _395  and  _396
REMARK  165  A    between atoms: _395  and  _398
REMARK  166  A    between atoms: _398  and  _399
REMARK  167  A    between atoms: _402  and  _404
REMARK  168  A    between atoms: _404  and  _405
REMARK  169  A    between atoms: _404  and  _407
REMARK  170  A    between atoms: _410  and  _412
REMARK  171  A    between atoms: _412  and  _413
REMARK  172  A    between atoms: _412  and  _415
REMARK  173  A    between atoms: _415  and  _416
REMARK  174  A    between atoms: _419  and  _421
REMARK  175  A    between atoms: _421  and  _422
REMARK  176  A    between atoms: _421  and  _424
REMARK  177  A    between atoms: _424  and  _425
REMARK  178  A    between atoms: _425  and  _426
REMARK  179  A    between atoms: _426  and  _427
REMARK  180  A    between atoms: _427  and  _428
REMARK  181  A    between atoms: _432  and  _434
REMARK  182  A    between atoms: _434  and  _435
REMARK  183  A    between atoms: _434  and  _437
REMARK  184  A    between atoms: _437  and  _438
REMARK  185  A    between atoms: _438  and  _439
REMARK  186  A    between atoms: _441  and  _443
REMARK  187  A    between atoms: _443  and  _444
REMARK  188  A    between atoms: _443  and  _446
REMARK  189  A    between atoms: _446  and  _447
REMARK  190  A    between atoms: _450  and  _452
REMARK  191  A    between atoms: _452  and  _453
REMARK  192  A    between atoms: _455  and  _457
REMARK  193  A    between atoms: _457  and  _458
REMARK  194  A    between atoms: _460  and  _462
REMARK  195  A    between atoms: _462  and  _463
REMARK  196  A    between atoms: _462  and  _465
REMARK  197  A    between atoms: _465  and  _466
REMARK  198  A    between atoms: _469  and  _471
REMARK  199  A    between atoms: _471  and  _472
REMARK  200  A    between atoms: _474  and  _476
REMARK  201  A    between atoms: _476  and  _477
REMARK  202  A    between atoms: _479  and  _481
REMARK  203  A    between atoms: _481  and  _482
REMARK  204  A    between atoms: _481  and  _484
REMARK  205  A    between atoms: _484  and  _485
REMARK  206  A    between atoms: _491  and  _493
REMARK  207  A    between atoms: _493  and  _494
REMARK  208  A    between atoms: _493  and  _496
REMARK  209  A    between atoms: _496  and  _497
REMARK  210  A    between atoms: _500  and  _502
REMARK  211  A    between atoms: _502  and  _503
REMARK  212  A    between atoms: _502  and  _505
REMARK  213  A    between atoms: _508  and  _510
REMARK  214  A    between atoms: _510  and  _511
REMARK  215  A    between atoms: _510  and  _513
REMARK  216  A    between atoms: _513  and  _514
REMARK  217  A    between atoms: _517  and  _519
REMARK  218  A    between atoms: _519  and  _520
REMARK  219  A    between atoms: _519  and  _522
REMARK  220  A    between atoms: _522  and  _523
REMARK  221  A    between atoms: _527  and  _528
REMARK  222  A    between atoms: _533  and  _535
REMARK  223  A    between atoms: _535  and  _536
REMARK  224  A    between atoms: _535  and  _538
REMARK  225  A    between atoms: _541  and  _543
REMARK  226  A    between atoms: _543  and  _544
REMARK  227  A    between atoms: _543  and  _546
REMARK  228  A    between atoms: _546  and  _547
REMARK  229  A    between atoms: _552  and  _554
REMARK  230  A    between atoms: _554  and  _555
REMARK  231  A    between atoms: _554  and  _557
REMARK  232  A    between atoms: _557  and  _558
REMARK  233  A    between atoms: _561  and  _563
REMARK  234  A    between atoms: _563  and  _564
REMARK  235  A    between atoms: _563  and  _566
REMARK  236  A    between atoms: _566  and  _567
REMARK  237  A    between atoms: _570  and  _572
REMARK  238  A    between atoms: _572  and  _573
REMARK  239  A    between atoms: _575  and  _577
REMARK  240  A    between atoms: _577  and  _578
REMARK  241  A    between atoms: _577  and  _580
REMARK  242  A    between atoms: _580  and  _581
REMARK  243  A    between atoms: _581  and  _582
REMARK  244  A    between atoms: _582  and  _583
REMARK  245  A    between atoms: _592  and  _594
REMARK  246  A    between atoms: _594  and  _595
REMARK  247  A    between atoms: _594  and  _597
REMARK  248  A    between atoms: _597  and  _598
REMARK                            x       y       z     vdW  Elec       q    Type
REMARK                         _______ _______ _______ _____ _____    ______ ____
ROOT
ATOM      1  C   ILE A   5      15.915  29.940  11.833  0.00  0.00    +0.241 C 
ATOM      2  O   ILE A   5      14.986  30.428  12.458  0.00  0.00    -0.273 OA
ATOM      3  N   ILE A   6      16.723  30.661  11.065  0.00  0.00    -0.297 N 
ATOM      4  H   ILE A   6      17.532  30.203  10.598  0.00  0.00    +0.150 HD
ENDROOT
BRANCH   3   5
ATOM      5  CA  ILE A   6      16.492  32.083  10.868  0.00  0.00    +0.149 C 
BRANCH   5   6
ATOM      6  C   ILE A   6      15.839  32.130   9.496  0.00  0.00    +0.241 C 
ATOM      7  N   GLY A   7      14.553  32.469   9.465  0.00  0.00    -0.295 N 
ATOM      8  H   GLY A   7      14.066  32.706  10.353  0.00  0.00    +0.150 HD
ATOM      9  O   ILE A   6      16.490  31.848   8.490  0.00  0.00    -0.273 OA
BRANCH   7  10
ATOM     10  CA  GLY A   7      13.817  32.514   8.214  0.00  0.00    +0.176 C 
BRANCH  10  11
ATOM     11  C   GLY A   7      13.771  33.860   7.518  0.00  0.00    +0.243 C 
ATOM     12  O   GLY A   7      14.351  34.844   7.979  0.00  0.00    -0.273 OA
ATOM     13  N   ARG A   8      13.061  33.902   6.398  0.00  0.00    -0.297 N 
ATOM     14  H   ARG A   8      12.565  33.046   6.079  0.00  0.00    +0.150 HD
BRANCH  13  15
ATOM     15  CA  ARG A   8      12.961  35.121   5.605  0.00  0.00    +0.149 C 
BRANCH  15  16
ATOM     16  C   ARG A   8      12.469  36.359   6.337  0.00  0.00    +0.241 C 
ATOM     17  N   ASN A   9      11.565  36.185   7.297  0.00  0.00    -0.298 N 
ATOM     18  H   ASN A   9      11.242  35.226   7.538  0.00  0.00    +0.150 HD
ATOM     19  O   ARG A   8      12.915  37.468   6.035  0.00  0.00    -0.273 OA
BRANCH  17  20
ATOM     20  CA  ASN A   9      11.025  37.340   8.014  0.00  0.00    +0.146 C 
BRANCH  20  21
ATOM     21  C   ASN A   9      12.113  38.146   8.713  0.00  0.00    +0.227 C 
ATOM     22  O   ASN A   9      11.965  39.350   8.908  0.00  0.00    -0.286 OA
ENDBRANCH  20  21
BRANCH  20  23
ATOM     23  CB  ASN A   9       9.943  36.909   9.016  0.00  0.00    +0.112 C 
BRANCH  23  24
ATOM     24  CG  ASN A   9      10.507  36.207  10.234  0.00  0.00    +0.222 C 
ATOM     25  ND2 ASN A   9      10.132  36.690  11.418  0.00  0.00    -0.329 N 
ATOM     26 HD21 ASN A   9      10.476  36.246  12.293  0.00  0.00    +0.145 HD
ATOM     27 HD22 ASN A   9       9.496  37.511  11.467  0.00  0.00    +0.145 HD
ATOM     28  OD1 ASN A   9      11.259  35.237  10.119  0.00  0.00    -0.275 OA
ENDBRANCH  23  24
ENDBRANCH  20  23
ENDBRANCH  17  20
ENDBRANCH  15  16
BRANCH  15  29
ATOM     29  CB  ARG A   8      12.082  34.881   4.370  0.00  0.00    +0.033 C 
BRANCH  29  30
ATOM     30  CG  ARG A   8      12.712  33.937   3.355  0.00  0.00    +0.045 C 
BRANCH  30  31
ATOM     31  CD  ARG A   8      11.931  33.883   2.036  0.00  0.00    +0.174 C 
BRANCH  31  32
ATOM     32  NE  ARG A   8      10.536  33.491   2.224  0.00  0.00    -0.265 N 
ATOM     33  HE  ARG A   8      10.328  32.475   2.303  0.00  0.00    +0.259 HD
ATOM     34  CZ  ARG A   8       9.513  34.337   2.301  0.00  0.00    +0.342 C 
ATOM     35  NH2 ARG A   8       8.282  33.873   2.492  0.00  0.00    -0.292 N 
ATOM     36 HH21 ARG A   8       8.120  32.850   2.581  0.00  0.00    +0.255 HD
ATOM     37 HH22 ARG A   8       7.481  34.533   2.552  0.00  0.00    +0.255 HD
ATOM     38  NH1 ARG A   8       9.715  35.646   2.199  0.00  0.00    -0.292 N 
ATOM     39 HH11 ARG A   8       8.911  36.303   2.260  0.00  0.00    +0.255 HD
ATOM     40 HH12 ARG A   8      10.677  36.014   2.058  0.00  0.00    +0.255 HD
ENDBRANCH  31  32
ENDBRANCH  30  31
ENDBRANCH  29  30
ENDBRANCH  15  29
ENDBRANCH  13  15
ENDBRANCH  10  11
ENDBRANCH   7  10
ENDBRANCH   5   6
BRANCH   5  41
ATOM     41  CB  ILE A   6      17.801  32.892  10.836  0.00  0.00    +0.027 C 
ATOM     42  CG2 ILE A   6      17.502  34.345  10.501  0.00  0.00    +0.002 C 
BRANCH  41  43
ATOM     43  CG1 ILE A   6      18.511  32.789  12.190  0.00  0.00    +0.002 C 
ATOM     44  CD1 ILE A   6      17.658  33.218  13.369  0.00  0.00    +0.000 C 
ENDBRANCH  41  43
ENDBRANCH   5  41
ENDBRANCH   3   5
BRANCH   1  45
ATOM     45  CA  ILE A   5      16.194  28.445  11.907  0.00  0.00    +0.149 C 
BRANCH  45  47
ATOM     46  C   ASN A   4      17.428  27.336  13.698  0.00  0.00    +0.241 C 
ATOM     47  N   ILE A   5      16.319  27.923  13.262  0.00  0.00    -0.297 N 
ATOM     48  H   ILE A   5      15.511  28.013  13.911  0.00  0.00    +0.150 HD
ATOM     49  O   ASN A   4      18.454  27.233  13.029  0.00  0.00    -0.273 OA
BRANCH  46  50
ATOM     50  CA  ASN A   4      17.368  26.785  15.112  0.00  0.00    +0.158 C 
BRANCH  50  52
ATOM     51  C   VAL A   3      17.090  24.438  14.539  0.00  0.00    +0.241 C 
ATOM     52  N   ASN A   4      17.836  25.404  15.071  0.00  0.00    -0.297 N 
ATOM     53  H   ASN A   4      18.770  25.170  15.465  0.00  0.00    +0.150 HD
ATOM     54  O   VAL A   3      15.967  24.638  14.074  0.00  0.00    -0.273 OA
BRANCH  51  55
ATOM     55  CA  VAL A   3      17.685  23.031  14.542  0.00  0.00    +0.149 C 
BRANCH  55  58
ATOM     56  C   PRO A   2      16.729  20.896  15.197  0.00  0.00    +0.241 C 
ATOM     57  O   PRO A   2      17.727  20.598  15.856  0.00  0.00    -0.273 OA
ATOM     58  N   VAL A   3      16.617  22.042  14.536  0.00  0.00    -0.297 N 
ATOM     59  H   VAL A   3      15.746  22.238  14.002  0.00  0.00    +0.150 HD
BRANCH  56  63
ATOM     60  C   THR A   1      13.758  21.447  15.896  0.00  0.00    +0.244 C 
ATOM     61  O   THR A   1      14.350  21.650  16.962  0.00  0.00    -0.273 OA
ATOM     62  N   PRO A   2      14.259  20.638  14.948  0.00  0.00    -0.272 N 
ATOM     63  CA  PRO A   2      15.545  19.942  15.090  0.00  0.00    +0.152 C 
ATOM     64  CB  PRO A   2      15.623  19.090  13.818  0.00  0.00    +0.031 C 
ATOM     65  CG  PRO A   2      14.193  18.894  13.436  0.00  0.00    +0.024 C 
ATOM     66  CD  PRO A   2      13.602  20.255  13.686  0.00  0.00    +0.094 C 
BRANCH  60  67
ATOM     67  CA  THR A   1      12.404  22.104  15.619  0.00  0.00    +0.172 C 
BRANCH  67  68
ATOM     68  N   THR A   1      11.651  22.113  16.867  0.00  0.00    -0.236 NA
ATOM     69  H   THR A   1      11.654  22.963  17.466  0.00  0.00    +0.142 HD
ENDBRANCH  67  68
BRANCH  67  70
ATOM     70  CB  THR A   1      12.616  23.536  15.072  0.00  0.00    +0.135 C 
ATOM     71  CG2 THR A   1      13.326  24.411  16.098  0.00  0.00    +0.034 C 
BRANCH  70  72
ATOM     72  OG1 THR A   1      13.394  23.474  13.872  0.00  0.00    -0.383 OA
ATOM     73  HG1 THR A   1      14.272  23.061  14.070  0.00  0.00    +0.210 HD
ENDBRANCH  70  72
ENDBRANCH  67  70
ENDBRANCH  60  67
ENDBRANCH  56  63
ENDBRANCH  55  58
BRANCH  55  74
ATOM     74  CB  VAL A   3      18.590  22.849  13.304  0.00  0.00    +0.027 C 
ATOM     75  CG2 VAL A   3      19.774  23.793  13.371  0.00  0.00    +0.002 C 
ATOM     76  CG1 VAL A   3      17.788  23.084  12.040  0.00  0.00    +0.002 C 
ENDBRANCH  55  74
ENDBRANCH  51  55
ENDBRANCH  50  52
BRANCH  50  77
ATOM     77  CB  ASN A   4      18.233  27.621  16.055  0.00  0.00    +0.114 C 
BRANCH  77  78
ATOM     78  CG  ASN A   4      18.081  27.196  17.503  0.00  0.00    +0.222 C 
ATOM     79  ND2 ASN A   4      19.197  27.083  18.214  0.00  0.00    -0.329 N 
ATOM     80 HD21 ASN A   4      19.150  26.798  19.213  0.00  0.00    +0.145 HD
ATOM     81 HD22 ASN A   4      20.118  27.279  17.772  0.00  0.00    +0.145 HD
ATOM     82  OD1 ASN A   4      16.967  26.976  17.977  0.00  0.00    -0.275 OA
ENDBRANCH  77  78
ENDBRANCH  50  77
ENDBRANCH  46  50
ENDBRANCH  45  47
BRANCH  45  83
ATOM     83  CB  ILE A   5      15.027  27.733  11.177  0.00  0.00    +0.027 C 
ATOM     84  CG2 ILE A   5      14.811  28.344   9.790  0.00  0.00    +0.002 C 
BRANCH  83  85
ATOM     85  CG1 ILE A   5      15.301  26.230  11.090  0.00  0.00    +0.002 C 
ATOM     86  CD1 ILE A   5      14.083  25.433  10.656  0.00  0.00    +0.000 C 
ENDBRANCH  83  85
ENDBRANCH  45  83
ENDBRANCH   1  45
TORSDOF 32
REMARK  Name = ../refined-set-2016/1d4h/1d4h_pocket.pdb
REMARK  248 active torsions:
REMARK  status: ('A' for Active; 'I' for Inactive)
REMARK    1  A    between atoms: _1  and  _3
REMARK    2  A    between atoms: _3  and  _4
REMARK    3  A    between atoms: _3  and  _6
REMARK    4  A    between atoms: _6  and  _7
REMARK    5  A    between atoms: _7  and  _8
REMARK    6  A    between atoms: _8  and  _9
REMARK    7  A    between atoms: _18  and  _20
REMARK    8  A    between atoms: _20  and  _21
REMARK    9  A    between atoms: _20  and  _23
REMARK   10  A    between atoms: _23  and  _24
REMARK   11  A    between atoms: _27  and  _29
REMARK   12  A    between atoms: _29  and  _30
REMARK   13  A    between atoms: _29  and  _32
REMARK   14  A    between atoms: _32  and  _33
REMARK   15  A    between atoms: _36  and  _38
REMARK   16  A    between atoms: _38  and  _39
REMARK   17  A    between atoms: _38  and  _41
REMARK   18  A    between atoms: _41  and  _42
REMARK   19  A    between atoms: _45  and  _47
REMARK   20  A    between atoms: _47  and  _48
REMARK   21  A    between atoms: _47  and  _50
REMARK   22  A    between atoms: _50  and  _51
REMARK   23  A    between atoms: _54  and  _56
REMARK   24  A    between atoms: _56  and  _57
REMARK   25  A    between atoms: _56  and  _59
REMARK   26  A    between atoms: _59  and  _60
REMARK   27  A    between atoms: _63  and  _65
REMARK   28  A    between atoms: _65  and  _66
REMARK   29  A    between atoms: _68  and  _70
REMARK   30  A    between atoms: _70  and  _71
REMARK   31  A    between atoms: _74  and  _76
REMARK   32  A    between atoms: _76  and  _77
REMARK   33  A    between atoms: _76  and  _79
REMARK   34  A    between atoms: _79  and  _80
REMARK   35  A    between atoms: _83  and  _85
REMARK   36  A    between atoms: _85  and  _86
REMARK   37  A    between atoms: _85  and  _88
REMARK   38  A    between atoms: _88  and  _89
REMARK   39  A    between atoms: _92  and  _94
REMARK   40  A    between atoms: _94  and  _95
REMARK   41  A    between atoms: _94  and  _97
REMARK   42  A    between atoms: _97  and  _98
REMARK   43  A    between atoms: _101  and  _103
REMARK   44  A    between atoms: _103  and  _104
REMARK   45  A    between atoms: _103  and  _106
REMARK   46  A    between atoms: _109  and  _111
REMARK   47  A    between atoms: _111  and  _112
REMARK   48  A    between atoms: _111  and  _114
REMARK   49  A    between atoms: _114  and  _115
REMARK   50  A    between atoms: _118  and  _120
REMARK   51  A    between atoms: _120  and  _121
REMARK   52  A    between atoms: _120  and  _123
REMARK   53  A    between atoms: _123  and  _124
REMARK   54  A    between atoms: _124  and  _125
REMARK   55  A    between atoms: _125  and  _126
REMARK   56  A    between atoms: _126  and  _127
REMARK   57  A    between atoms: _131  and  _133
REMARK   58  A    between atoms: _133  and  _134
REMARK   59  A    between atoms: _133  and  _136
REMARK   60  A    between atoms: _136  and  _137
REMARK   61  A    between atoms: _137  and  _138
REMARK   62  A    between atoms: _140  and  _142
REMARK   63  A    between atoms: _142  and  _143
REMARK   64  A    between atoms: _142  and  _145
REMARK   65  A    between atoms: _145  and  _146
REMARK   66  A    between atoms: _149  and  _151
REMARK   67  A    between atoms: _151  and  _152
REMARK   68  A    between atoms: _154  and  _156
REMARK   69  A    between atoms: _156  and  _157
REMARK   70  A    between atoms: _159  and  _161
REMARK   71  A    between atoms: _161  and  _162
REMARK   72  A    between atoms: _161  and  _164
REMARK   73  A    between atoms: _164  and  _165
REMARK   74  A    between atoms: _168  and  _170
REMARK   75  A    between atoms: _170  and  _171
REMARK   76  A    between atoms: _173  and  _175
REMARK   77  A    between atoms: _175  and  _176
REMARK   78  A    between atoms: _178  and  _180
REMARK   79  A    between atoms: _180  and  _181
REMARK   80  A    between atoms: _180  and  _183
REMARK   81  A    between atoms: _183  and  _184
REMARK   82  A    between atoms: _190  and  _192
REMARK   83  A    between atoms: _192  and  _193
REMARK   84  A    between atoms: _192  and  _195
REMARK   85  A    between atoms: _195  and  _196
REMARK   86  A    between atoms: _199  and  _201
REMARK   87  A    between atoms: _201  and  _202
REMARK   88  A    between atoms: _201  and  _204
REMARK   89  A    between atoms: _207  and  _209
REMARK   90  A    between atoms: _209  and  _210
REMARK   91  A    between atoms: _209  and  _212
REMARK   92  A    between atoms: _212  and  _213
REMARK   93  A    between atoms: _216  and  _218
REMARK   94  A    between atoms: _218  and  _219
REMARK   95  A    between atoms: _218  and  _221
REMARK   96  A    between atoms: _221  and  _222
REMARK   97  A    between atoms: _226  and  _227
REMARK   98  A    between atoms: _232  and  _234
REMARK   99  A    between atoms: _234  and  _235
REMARK  100  A    between atoms: _234  and  _237
REMARK  101  A    between atoms: _240  and  _242
REMARK  102  A    between atoms: _242  and  _243
REMARK  103  A    between atoms: _242  and  _245
REMARK  104  A    between atoms: _245  and  _246
REMARK  105  A    between atoms: _251  and  _253
REMARK  106  A    between atoms: _253  and  _254
REMARK  107  A    between atoms: _253  and  _256
REMARK  108  A    between atoms: _256  and  _257
REMARK  109  A    between atoms: _260  and  _262
REMARK  110  A    between atoms: _262  and  _263
REMARK  111  A    between atoms: _262  and  _265
REMARK  112  A    between atoms: _265  and  _266
REMARK  113  A    between atoms: _269  and  _271
REMARK  114  A    between atoms: _271  and  _272
REMARK  115  A    between atoms: _274  and  _276
REMARK  116  A    between atoms: _276  and  _277
REMARK  117  A    between atoms: _276  and  _279
REMARK  118  A    between atoms: _279  and  _280
REMARK  119  A    between atoms: _280  and  _281
REMARK  120  A    between atoms: _281  and  _282
REMARK  121  A    between atoms: _291  and  _293
REMARK  122  A    between atoms: _293  and  _294
REMARK  123  A    between atoms: _293  and  _296
REMARK  124  A    between atoms: _296  and  _297
REMARK  125  A    between atoms: _302  and  _304
REMARK  126  A    between atoms: _304  and  _305
REMARK  127  A    between atoms: _304  and  _307
REMARK  128  A    between atoms: _307  and  _308
REMARK  129  A    between atoms: _308  and  _309
REMARK  130  A    between atoms: _309  and  _310
REMARK  131  A    between atoms: _319  and  _321
REMARK  132  A    between atoms: _321  and  _322
REMARK  133  A    between atoms: _321  and  _324
REMARK  134  A    between atoms: _324  and  _325
REMARK  135  A    between atoms: _328  and  _330
REMARK  136  A    between atoms: _330  and  _331
REMARK  137  A    between atoms: _330  and  _333
REMARK  138  A    between atoms: _333  and  _334
REMARK  139  A    between atoms: _337  and  _339
REMARK  140  A    between atoms: _339  and  _340
REMARK  141  A    between atoms: _339  and  _342
REMARK  142  A    between atoms: _342  and  _343
REMARK  143  A    between atoms: _346  and  _348
REMARK  144  A    between atoms: _348  and  _349
REMARK  145  A    between atoms: _348  and  _351
REMARK  146  A    between atoms: _351  and  _352
REMARK  147  A    between atoms: _355  and  _357
REMARK  148  A    between atoms: _357  and  _358
REMARK  149  A    between atoms: _357  and  _360
REMARK  150  A    between atoms: _360  and  _361
REMARK  151  A    between atoms: _364  and  _366
REMARK  152  A    between atoms: _366  and  _367
REMARK  153  A    between atoms: _369  and  _371
REMARK  154  A    between atoms: _371  and  _372
REMARK  155  A    between atoms: _375  and  _377
REMARK  156  A    between atoms: _377  and  _378
REMARK  157  A    between atoms: _377  and  _380
REMARK  158  A    between atoms: _380  and  _381
REMARK  159  A    between atoms: _384  and  _386
REMARK  160  A    between atoms: _386  and  _387
REMARK  161  A    between atoms: _386  and  _389
REMARK  162  A    between atoms: _389  and  _390
REMARK  163  A    between atoms: _393  and  _395
REMARK  164  A    between atoms: _395  and  _396
REMARK  165  A    between atoms: _395  and  _398
REMARK  166  A    between atoms: _398  and  _399
REMARK  167  A    between atoms: _402  and  _404
REMARK  168  A    between atoms: _404  and  _405
REMARK  169  A    between atoms: _404  and  _407
REMARK  170  A    between atoms: _410  and  _412
REMARK  171  A    between atoms: _412  and  _413
REMARK  172  A    between atoms: _412  and  _415
REMARK  173  A    between atoms: _415  and  _416
REMARK  174  A    between atoms: _419  and  _421
REMARK  175  A    between atoms: _421  and  _422
REMARK  176  A    between atoms: _421  and  _424
REMARK  177  A    between atoms: _424  and  _425
REMARK  178  A    between atoms: _425  and  _426
REMARK  179  A    between atoms: _426  and  _427
REMARK  180  A    between atoms: _427  and  _428
REMARK  181  A    between atoms: _432  and  _434
REMARK  182  A    between atoms: _434  and  _435
REMARK  183  A    between atoms: _434  and  _437
REMARK  184  A    between atoms: _437  and  _438
REMARK  185  A    between atoms: _438  and  _439
REMARK  186  A    between atoms: _441  and  _443
REMARK  187  A    between atoms: _443  and  _444
REMARK  188  A    between atoms: _443  and  _446
REMARK  189  A    between atoms: _446  and  _447
REMARK  190  A    between atoms: _450  and  _452
REMARK  191  A    between atoms: _452  and  _453
REMARK  192  A    between atoms: _455  and  _457
REMARK  193  A    between atoms: _457  and  _458
REMARK  194  A    between atoms: _460  and  _462
REMARK  195  A    between atoms: _462  and  _463
REMARK  196  A    between atoms: _462  and  _465
REMARK  197  A    between atoms: _465  and  _466
REMARK  198  A    between atoms: _469  and  _471
REMARK  199  A    between atoms: _471  and  _472
REMARK  200  A    between atoms: _474  and  _476
REMARK  201  A    between atoms: _476  and  _477
REMARK  202  A    between atoms: _479  and  _481
REMARK  203  A    between atoms: _481  and  _482
REMARK  204  A    between atoms: _481  and  _484
REMARK  205  A    between atoms: _484  and  _485
REMARK  206  A    between atoms: _491  and  _493
REMARK  207  A    between atoms: _493  and  _494
REMARK  208  A    between atoms: _493  and  _496
REMARK  209  A    between atoms: _496  and  _497
REMARK  210  A    between atoms: _500  and  _502
REMARK  211  A    between atoms: _502  and  _503
REMARK  212  A    between atoms: _502  and  _505
REMARK  213  A    between atoms: _508  and  _510
REMARK  214  A    between atoms: _510  and  _511
REMARK  215  A    between atoms: _510  and  _513
REMARK  216  A    between atoms: _513  and  _514
REMARK  217  A    between atoms: _517  and  _519
REMARK  218  A    between atoms: _519  and  _520
REMARK  219  A    between atoms: _519  and  _522
REMARK  220  A    between atoms: _522  and  _523
REMARK  221  A    between atoms: _527  and  _528
REMARK  222  A    between atoms: _533  and  _535
REMARK  223  A    between atoms: _535  and  _536
REMARK  224  A    between atoms: _535  and  _538
REMARK  225  A    between atoms: _541  and  _543
REMARK  226  A    between atoms: _543  and  _544
REMARK  227  A    between atoms: _543  and  _546
REMARK  228  A    between atoms: _546  and  _547
REMARK  229  A    between atoms: _552  and  _554
REMARK  230  A    between atoms: _554  and  _555
REMARK  231  A    between atoms: _554  and  _557
REMARK  232  A    between atoms: _557  and  _558
REMARK  233  A    between atoms: _561  and  _563
REMARK  234  A    between atoms: _563  and  _564
REMARK  235  A    between atoms: _563  and  _566
REMARK  236  A    between atoms: _566  and  _567
REMARK  237  A    between atoms: _570  and  _572
REMARK  238  A    between atoms: _572  and  _573
REMARK  239  A    between atoms: _575  and  _577
REMARK  240  A    between atoms: _577  and  _578
REMARK  241  A    between atoms: _577  and  _580
REMARK  242  A    between atoms: _580  and  _581
REMARK  243  A    between atoms: _581  and  _582
REMARK  244  A    between atoms: _582  and  _583
REMARK  245  A    between atoms: _592  and  _594
REMARK  246  A    between atoms: _594  and  _595
REMARK  247  A    between atoms: _594  and  _597
REMARK  248  A    between atoms: _597  and  _598
REMARK                            x       y       z     vdW  Elec       q    Type
REMARK                         _______ _______ _______ _____ _____    ______ ____
ROOT
ATOM      1  NE  ARG A   1       6.954  29.806   0.739  0.00  0.00    -0.265 N 
ATOM      2  HE  ARG A   1       7.243  30.294   1.611  0.00  0.00    +0.259 HD
ATOM      3  CZ  ARG A   1       6.161  28.745   0.853  0.00  0.00    +0.342 C 
ATOM      4  NH2 ARG A   1       5.774  28.334   2.053  0.00  0.00    -0.292 N 
ATOM      5 HH21 ARG A   1       6.091  28.842   2.904  0.00  0.00    +0.255 HD
ATOM      6 HH22 ARG A   1       5.154  27.504   2.143  0.00  0.00    +0.255 HD
ATOM      7  NH1 ARG A   1       5.763  28.089  -0.234  0.00  0.00    -0.292 N 
ATOM      8 HH11 ARG A   1       5.143  27.259  -0.143  0.00  0.00    +0.255 HD
ATOM      9 HH12 ARG A   1       6.072  28.406  -1.175  0.00  0.00    +0.255 HD
ENDROOT
BRANCH   1  10
ATOM     10  CD  ARG A   1       7.444  30.328  -0.531  0.00  0.00    +0.174 C 
BRANCH  10  11
ATOM     11  CG  ARG A   1       8.306  31.560  -0.337  0.00  0.00    +0.045 C 
BRANCH  11  12
ATOM     12  CB  ARG A   1       8.988  31.947  -1.633  0.00  0.00    +0.029 C 
BRANCH  12  13
ATOM     13  CA  ARG A   1       9.948  33.125  -1.485  0.00  0.00    +0.133 C 
BRANCH  13  14
ATOM     14  N   ARG A   1       9.203  34.373  -1.338  0.00  0.00    -0.239 NA
ATOM     15  H   ARG A   1       8.163  34.359  -1.345  0.00  0.00    +0.142 HD
ENDBRANCH  13  14
BRANCH  13  16
ATOM     16  C   ARG A   1      10.860  33.197  -2.697  0.00  0.00    +0.224 C 
ATOM     17  O   ARG A   1      10.457  33.667  -3.762  0.00  0.00    -0.287 OA
ENDBRANCH  13  16
ENDBRANCH  12  13
ENDBRANCH  11  12
ENDBRANCH  10  11
ENDBRANCH   1  10
TORSDOF 6
REMARK  Name = ../refined-set-2016/1d4h/1d4h_pocket.pdb
REMARK  248 active torsions:
REMARK  status: ('A' for Active; 'I' for Inactive)
REMARK    1  A    between atoms: _1  and  _3
REMARK    2  A    between atoms: _3  and  _4
REMARK    3  A    between atoms: _3  and  _6
REMARK    4  A    between atoms: _6  and  _7
REMARK    5  A    between atoms: _7  and  _8
REMARK    6  A    between atoms: _8  and  _9
REMARK    7  A    between atoms: _18  and  _20
REMARK    8  A    between atoms: _20  and  _21
REMARK    9  A    between atoms: _20  and  _23
REMARK   10  A    between atoms: _23  and  _24
REMARK   11  A    between atoms: _27  and  _29
REMARK   12  A    between atoms: _29  and  _30
REMARK   13  A    between atoms: _29  and  _32
REMARK   14  A    between atoms: _32  and  _33
REMARK   15  A    between atoms: _36  and  _38
REMARK   16  A    between atoms: _38  and  _39
REMARK   17  A    between atoms: _38  and  _41
REMARK   18  A    between atoms: _41  and  _42
REMARK   19  A    between atoms: _45  and  _47
REMARK   20  A    between atoms: _47  and  _48
REMARK   21  A    between atoms: _47  and  _50
REMARK   22  A    between atoms: _50  and  _51
REMARK   23  A    between atoms: _54  and  _56
REMARK   24  A    between atoms: _56  and  _57
REMARK   25  A    between atoms: _56  and  _59
REMARK   26  A    between atoms: _59  and  _60
REMARK   27  A    between atoms: _63  and  _65
REMARK   28  A    between atoms: _65  and  _66
REMARK   29  A    between atoms: _68  and  _70
REMARK   30  A    between atoms: _70  and  _71
REMARK   31  A    between atoms: _74  and  _76
REMARK   32  A    between atoms: _76  and  _77
REMARK   33  A    between atoms: _76  and  _79
REMARK   34  A    between atoms: _79  and  _80
REMARK   35  A    between atoms: _83  and  _85
REMARK   36  A    between atoms: _85  and  _86
REMARK   37  A    between atoms: _85  and  _88
REMARK   38  A    between atoms: _88  and  _89
REMARK   39  A    between atoms: _92  and  _94
REMARK   40  A    between atoms: _94  and  _95
REMARK   41  A    between atoms: _94  and  _97
REMARK   42  A    between atoms: _97  and  _98
REMARK   43  A    between atoms: _101  and  _103
REMARK   44  A    between atoms: _103  and  _104
REMARK   45  A    between atoms: _103  and  _106
REMARK   46  A    between atoms: _109  and  _111
REMARK   47  A    between atoms: _111  and  _112
REMARK   48  A    between atoms: _111  and  _114
REMARK   49  A    between atoms: _114  and  _115
REMARK   50  A    between atoms: _118  and  _120
REMARK   51  A    between atoms: _120  and  _121
REMARK   52  A    between atoms: _120  and  _123
REMARK   53  A    between atoms: _123  and  _124
REMARK   54  A    between atoms: _124  and  _125
REMARK   55  A    between atoms: _125  and  _126
REMARK   56  A    between atoms: _126  and  _127
REMARK   57  A    between atoms: _131  and  _133
REMARK   58  A    between atoms: _133  and  _134
REMARK   59  A    between atoms: _133  and  _136
REMARK   60  A    between atoms: _136  and  _137
REMARK   61  A    between atoms: _137  and  _138
REMARK   62  A    between atoms: _140  and  _142
REMARK   63  A    between atoms: _142  and  _143
REMARK   64  A    between atoms: _142  and  _145
REMARK   65  A    between atoms: _145  and  _146
REMARK   66  A    between atoms: _149  and  _151
REMARK   67  A    between atoms: _151  and  _152
REMARK   68  A    between atoms: _154  and  _156
REMARK   69  A    between atoms: _156  and  _157
REMARK   70  A    between atoms: _159  and  _161
REMARK   71  A    between atoms: _161  and  _162
REMARK   72  A    between atoms: _161  and  _164
REMARK   73  A    between atoms: _164  and  _165
REMARK   74  A    between atoms: _168  and  _170
REMARK   75  A    between atoms: _170  and  _171
REMARK   76  A    between atoms: _173  and  _175
REMARK   77  A    between atoms: _175  and  _176
REMARK   78  A    between atoms: _178  and  _180
REMARK   79  A    between atoms: _180  and  _181
REMARK   80  A    between atoms: _180  and  _183
REMARK   81  A    between atoms: _183  and  _184
REMARK   82  A    between atoms: _190  and  _192
REMARK   83  A    between atoms: _192  and  _193
REMARK   84  A    between atoms: _192  and  _195
REMARK   85  A    between atoms: _195  and  _196
REMARK   86  A    between atoms: _199  and  _201
REMARK   87  A    between atoms: _201  and  _202
REMARK   88  A    between atoms: _201  and  _204
REMARK   89  A    between atoms: _207  and  _209
REMARK   90  A    between atoms: _209  and  _210
REMARK   91  A    between atoms: _209  and  _212
REMARK   92  A    between atoms: _212  and  _213
REMARK   93  A    between atoms: _216  and  _218
REMARK   94  A    between atoms: _218  and  _219
REMARK   95  A    between atoms: _218  and  _221
REMARK   96  A    between atoms: _221  and  _222
REMARK   97  A    between atoms: _226  and  _227
REMARK   98  A    between atoms: _232  and  _234
REMARK   99  A    between atoms: _234  and  _235
REMARK  100  A    between atoms: _234  and  _237
REMARK  101  A    between atoms: _240  and  _242
REMARK  102  A    between atoms: _242  and  _243
REMARK  103  A    between atoms: _242  and  _245
REMARK  104  A    between atoms: _245  and  _246
REMARK  105  A    between atoms: _251  and  _253
REMARK  106  A    between atoms: _253  and  _254
REMARK  107  A    between atoms: _253  and  _256
REMARK  108  A    between atoms: _256  and  _257
REMARK  109  A    between atoms: _260  and  _262
REMARK  110  A    between atoms: _262  and  _263
REMARK  111  A    between atoms: _262  and  _265
REMARK  112  A    between atoms: _265  and  _266
REMARK  113  A    between atoms: _269  and  _271
REMARK  114  A    between atoms: _271  and  _272
REMARK  115  A    between atoms: _274  and  _276
REMARK  116  A    between atoms: _276  and  _277
REMARK  117  A    between atoms: _276  and  _279
REMARK  118  A    between atoms: _279  and  _280
REMARK  119  A    between atoms: _280  and  _281
REMARK  120  A    between atoms: _281  and  _282
REMARK  121  A    between atoms: _291  and  _293
REMARK  122  A    between atoms: _293  and  _294
REMARK  123  A    between atoms: _293  and  _296
REMARK  124  A    between atoms: _296  and  _297
REMARK  125  A    between atoms: _302  and  _304
REMARK  126  A    between atoms: _304  and  _305
REMARK  127  A    between atoms: _304  and  _307
REMARK  128  A    between atoms: _307  and  _308
REMARK  129  A    between atoms: _308  and  _309
REMARK  130  A    between atoms: _309  and  _310
REMARK  131  A    between atoms: _319  and  _321
REMARK  132  A    between atoms: _321  and  _322
REMARK  133  A    between atoms: _321  and  _324
REMARK  134  A    between atoms: _324  and  _325
REMARK  135  A    between atoms: _328  and  _330
REMARK  136  A    between atoms: _330  and  _331
REMARK  137  A    between atoms: _330  and  _333
REMARK  138  A    between atoms: _333  and  _334
REMARK  139  A    between atoms: _337  and  _339
REMARK  140  A    between atoms: _339  and  _340
REMARK  141  A    between atoms: _339  and  _342
REMARK  142  A    between atoms: _342  and  _343
REMARK  143  A    between atoms: _346  and  _348
REMARK  144  A    between atoms: _348  and  _349
REMARK  145  A    between atoms: _348  and  _351
REMARK  146  A    between atoms: _351  and  _352
REMARK  147  A    between atoms: _355  and  _357
REMARK  148  A    between atoms: _357  and  _358
REMARK  149  A    between atoms: _357  and  _360
REMARK  150  A    between atoms: _360  and  _361
REMARK  151  A    between atoms: _364  and  _366
REMARK  152  A    between atoms: _366  and  _367
REMARK  153  A    between atoms: _369  and  _371
REMARK  154  A    between atoms: _371  and  _372
REMARK  155  A    between atoms: _375  and  _377
REMARK  156  A    between atoms: _377  and  _378
REMARK  157  A    between atoms: _377  and  _380
REMARK  158  A    between atoms: _380  and  _381
REMARK  159  A    between atoms: _384  and  _386
REMARK  160  A    between atoms: _386  and  _387
REMARK  161  A    between atoms: _386  and  _389
REMARK  162  A    between atoms: _389  and  _390
REMARK  163  A    between atoms: _393  and  _395
REMARK  164  A    between atoms: _395  and  _396
REMARK  165  A    between atoms: _395  and  _398
REMARK  166  A    between atoms: _398  and  _399
REMARK  167  A    between atoms: _402  and  _404
REMARK  168  A    between atoms: _404  and  _405
REMARK  169  A    between atoms: _404  and  _407
REMARK  170  A    between atoms: _410  and  _412
REMARK  171  A    between atoms: _412  and  _413
REMARK  172  A    between atoms: _412  and  _415
REMARK  173  A    between atoms: _415  and  _416
REMARK  174  A    between atoms: _419  and  _421
REMARK  175  A    between atoms: _421  and  _422
REMARK  176  A    between atoms: _421  and  _424
REMARK  177  A    between atoms: _424  and  _425
REMARK  178  A    between atoms: _425  and  _426
REMARK  179  A    between atoms: _426  and  _427
REMARK  180  A    between atoms: _427  and  _428
REMARK  181  A    between atoms: _432  and  _434
REMARK  182  A    between atoms: _434  and  _435
REMARK  183  A    between atoms: _434  and  _437
REMARK  184  A    between atoms: _437  and  _438
REMARK  185  A    between atoms: _438  and  _439
REMARK  186  A    between atoms: _441  and  _443
REMARK  187  A    between atoms: _443  and  _444
REMARK  188  A    between atoms: _443  and  _446
REMARK  189  A    between atoms: _446  and  _447
REMARK  190  A    between atoms: _450  and  _452
REMARK  191  A    between atoms: _452  and  _453
REMARK  192  A    between atoms: _455  and  _457
REMARK  193  A    between atoms: _457  and  _458
REMARK  194  A    between atoms: _460  and  _462
REMARK  195  A    between atoms: _462  and  _463
REMARK  196  A    between atoms: _462  and  _465
REMARK  197  A    between atoms: _465  and  _466
REMARK  198  A    between atoms: _469  and  _471
REMARK  199  A    between atoms: _471  and  _472
REMARK  200  A    between atoms: _474  and  _476
REMARK  201  A    between atoms: _476  and  _477
REMARK  202  A    between atoms: _479  and  _481
REMARK  203  A    between atoms: _481  and  _482
REMARK  204  A    between atoms: _481  and  _484
REMARK  205  A    between atoms: _484  and  _485
REMARK  206  A    between atoms: _491  and  _493
REMARK  207  A    between atoms: _493  and  _494
REMARK  208  A    between atoms: _493  and  _496
REMARK  209  A    between atoms: _496  and  _497
REMARK  210  A    between atoms: _500  and  _502
REMARK  211  A    between atoms: _502  and  _503
REMARK  212  A    between atoms: _502  and  _505
REMARK  213  A    between atoms: _508  and  _510
REMARK  214  A    between atoms: _510  and  _511
REMARK  215  A    between atoms: _510  and  _513
REMARK  216  A    between atoms: _513  and  _514
REMARK  217  A    between atoms: _517  and  _519
REMARK  218  A    between atoms: _519  and  _520
REMARK  219  A    between atoms: _519  and  _522
REMARK  220  A    between atoms: _522  and  _523
REMARK  221  A    between atoms: _527  and  _528
REMARK  222  A    between atoms: _533  and  _535
REMARK  223  A    between atoms: _535  and  _536
REMARK  224  A    between atoms: _535  and  _538
REMARK  225  A    between atoms: _541  and  _543
REMARK  226  A    between atoms: _543  and  _544
REMARK  227  A    between atoms: _543  and  _546
REMARK  228  A    between atoms: _546  and  _547
REMARK  229  A    between atoms: _552  and  _554
REMARK  230  A    between atoms: _554  and  _555
REMARK  231  A    between atoms: _554  and  _557
REMARK  232  A    between atoms: _557  and  _558
REMARK  233  A    between atoms: _561  and  _563
REMARK  234  A    between atoms: _563  and  _564
REMARK  235  A    between atoms: _563  and  _566
REMARK  236  A    between atoms: _566  and  _567
REMARK  237  A    between atoms: _570  and  _572
REMARK  238  A    between atoms: _572  and  _573
REMARK  239  A    between atoms: _575  and  _577
REMARK  240  A    between atoms: _577  and  _578
REMARK  241  A    between atoms: _577  and  _580
REMARK  242  A    between atoms: _580  and  _581
REMARK  243  A    between atoms: _581  and  _582
REMARK  244  A    between atoms: _582  and  _583
REMARK  245  A    between atoms: _592  and  _594
REMARK  246  A    between atoms: _594  and  _595
REMARK  247  A    between atoms: _594  and  _597
REMARK  248  A    between atoms: _597  and  _598
REMARK                            x       y       z     vdW  Elec       q    Type
REMARK                         _______ _______ _______ _____ _____    ______ ____
ROOT
ATOM      1  CA  LEU A   1      11.285  30.803  -6.373  0.00  0.00    +0.133 C 
ENDROOT
BRANCH   1   2
ATOM      2  N   LEU A   1      11.690  31.803  -5.405  0.00  0.00    -0.239 NA
ATOM      3  H   LEU A   1      11.127  32.672  -5.311  0.00  0.00    +0.142 HD
ENDBRANCH   1   2
BRANCH   1   4
ATOM      4  C   LEU A   1      11.888  31.122  -7.727  0.00  0.00    +0.224 C 
ATOM      5  O   LEU A   1      11.917  32.277  -8.153  0.00  0.00    -0.287 OA
ENDBRANCH   1   4
BRANCH   1   6
ATOM      6  CB  LEU A   1       9.759  30.769  -6.485  0.00  0.00    +0.025 C 
BRANCH   6   7
ATOM      7  CG  LEU A   1       8.988  30.379  -5.226  0.00  0.00    +0.002 C 
ATOM      8  CD2 LEU A   1       9.321  28.942  -4.849  0.00  0.00    +0.000 C 
ATOM      9  CD1 LEU A   1       7.494  30.540  -5.472  0.00  0.00    +0.000 C 
ENDBRANCH   6   7
ENDBRANCH   1   6
TORSDOF 4
REMARK  Name = ../refined-set-2016/1d4h/1d4h_pocket.pdb
REMARK  248 active torsions:
REMARK  status: ('A' for Active; 'I' for Inactive)
REMARK    1  A    between atoms: _1  and  _3
REMARK    2  A    between atoms: _3  and  _4
REMARK    3  A    between atoms: _3  and  _6
REMARK    4  A    between atoms: _6  and  _7
REMARK    5  A    between atoms: _7  and  _8
REMARK    6  A    between atoms: _8  and  _9
REMARK    7  A    between atoms: _18  and  _20
REMARK    8  A    between atoms: _20  and  _21
REMARK    9  A    between atoms: _20  and  _23
REMARK   10  A    between atoms: _23  and  _24
REMARK   11  A    between atoms: _27  and  _29
REMARK   12  A    between atoms: _29  and  _30
REMARK   13  A    between atoms: _29  and  _32
REMARK   14  A    between atoms: _32  and  _33
REMARK   15  A    between atoms: _36  and  _38
REMARK   16  A    between atoms: _38  and  _39
REMARK   17  A    between atoms: _38  and  _41
REMARK   18  A    between atoms: _41  and  _42
REMARK   19  A    between atoms: _45  and  _47
REMARK   20  A    between atoms: _47  and  _48
REMARK   21  A    between atoms: _47  and  _50
REMARK   22  A    between atoms: _50  and  _51
REMARK   23  A    between atoms: _54  and  _56
REMARK   24  A    between atoms: _56  and  _57
REMARK   25  A    between atoms: _56  and  _59
REMARK   26  A    between atoms: _59  and  _60
REMARK   27  A    between atoms: _63  and  _65
REMARK   28  A    between atoms: _65  and  _66
REMARK   29  A    between atoms: _68  and  _70
REMARK   30  A    between atoms: _70  and  _71
REMARK   31  A    between atoms: _74  and  _76
REMARK   32  A    between atoms: _76  and  _77
REMARK   33  A    between atoms: _76  and  _79
REMARK   34  A    between atoms: _79  and  _80
REMARK   35  A    between atoms: _83  and  _85
REMARK   36  A    between atoms: _85  and  _86
REMARK   37  A    between atoms: _85  and  _88
REMARK   38  A    between atoms: _88  and  _89
REMARK   39  A    between atoms: _92  and  _94
REMARK   40  A    between atoms: _94  and  _95
REMARK   41  A    between atoms: _94  and  _97
REMARK   42  A    between atoms: _97  and  _98
REMARK   43  A    between atoms: _101  and  _103
REMARK   44  A    between atoms: _103  and  _104
REMARK   45  A    between atoms: _103  and  _106
REMARK   46  A    between atoms: _109  and  _111
REMARK   47  A    between atoms: _111  and  _112
REMARK   48  A    between atoms: _111  and  _114
REMARK   49  A    between atoms: _114  and  _115
REMARK   50  A    between atoms: _118  and  _120
REMARK   51  A    between atoms: _120  and  _121
REMARK   52  A    between atoms: _120  and  _123
REMARK   53  A    between atoms: _123  and  _124
REMARK   54  A    between atoms: _124  and  _125
REMARK   55  A    between atoms: _125  and  _126
REMARK   56  A    between atoms: _126  and  _127
REMARK   57  A    between atoms: _131  and  _133
REMARK   58  A    between atoms: _133  and  _134
REMARK   59  A    between atoms: _133  and  _136
REMARK   60  A    between atoms: _136  and  _137
REMARK   61  A    between atoms: _137  and  _138
REMARK   62  A    between atoms: _140  and  _142
REMARK   63  A    between atoms: _142  and  _143
REMARK   64  A    between atoms: _142  and  _145
REMARK   65  A    between atoms: _145  and  _146
REMARK   66  A    between atoms: _149  and  _151
REMARK   67  A    between atoms: _151  and  _152
REMARK   68  A    between atoms: _154  and  _156
REMARK   69  A    between atoms: _156  and  _157
REMARK   70  A    between atoms: _159  and  _161
REMARK   71  A    between atoms: _161  and  _162
REMARK   72  A    between atoms: _161  and  _164
REMARK   73  A    between atoms: _164  and  _165
REMARK   74  A    between atoms: _168  and  _170
REMARK   75  A    between atoms: _170  and  _171
REMARK   76  A    between atoms: _173  and  _175
REMARK   77  A    between atoms: _175  and  _176
REMARK   78  A    between atoms: _178  and  _180
REMARK   79  A    between atoms: _180  and  _181
REMARK   80  A    between atoms: _180  and  _183
REMARK   81  A    between atoms: _183  and  _184
REMARK   82  A    between atoms: _190  and  _192
REMARK   83  A    between atoms: _192  and  _193
REMARK   84  A    between atoms: _192  and  _195
REMARK   85  A    between atoms: _195  and  _196
REMARK   86  A    between atoms: _199  and  _201
REMARK   87  A    between atoms: _201  and  _202
REMARK   88  A    between atoms: _201  and  _204
REMARK   89  A    between atoms: _207  and  _209
REMARK   90  A    between atoms: _209  and  _210
REMARK   91  A    between atoms: _209  and  _212
REMARK   92  A    between atoms: _212  and  _213
REMARK   93  A    between atoms: _216  and  _218
REMARK   94  A    between atoms: _218  and  _219
REMARK   95  A    between atoms: _218  and  _221
REMARK   96  A    between atoms: _221  and  _222
REMARK   97  A    between atoms: _226  and  _227
REMARK   98  A    between atoms: _232  and  _234
REMARK   99  A    between atoms: _234  and  _235
REMARK  100  A    between atoms: _234  and  _237
REMARK  101  A    between atoms: _240  and  _242
REMARK  102  A    between atoms: _242  and  _243
REMARK  103  A    between atoms: _242  and  _245
REMARK  104  A    between atoms: _245  and  _246
REMARK  105  A    between atoms: _251  and  _253
REMARK  106  A    between atoms: _253  and  _254
REMARK  107  A    between atoms: _253  and  _256
REMARK  108  A    between atoms: _256  and  _257
REMARK  109  A    between atoms: _260  and  _262
REMARK  110  A    between atoms: _262  and  _263
REMARK  111  A    between atoms: _262  and  _265
REMARK  112  A    between atoms: _265  and  _266
REMARK  113  A    between atoms: _269  and  _271
REMARK  114  A    between atoms: _271  and  _272
REMARK  115  A    between atoms: _274  and  _276
REMARK  116  A    between atoms: _276  and  _277
REMARK  117  A    between atoms: _276  and  _279
REMARK  118  A    between atoms: _279  and  _280
REMARK  119  A    between atoms: _280  and  _281
REMARK  120  A    between atoms: _281  and  _282
REMARK  121  A    between atoms: _291  and  _293
REMARK  122  A    between atoms: _293  and  _294
REMARK  123  A    between atoms: _293  and  _296
REMARK  124  A    between atoms: _296  and  _297
REMARK  125  A    between atoms: _302  and  _304
REMARK  126  A    between atoms: _304  and  _305
REMARK  127  A    between atoms: _304  and  _307
REMARK  128  A    between atoms: _307  and  _308
REMARK  129  A    between atoms: _308  and  _309
REMARK  130  A    between atoms: _309  and  _310
REMARK  131  A    between atoms: _319  and  _321
REMARK  132  A    between atoms: _321  and  _322
REMARK  133  A    between atoms: _321  and  _324
REMARK  134  A    between atoms: _324  and  _325
REMARK  135  A    between atoms: _328  and  _330
REMARK  136  A    between atoms: _330  and  _331
REMARK  137  A    between atoms: _330  and  _333
REMARK  138  A    between atoms: _333  and  _334
REMARK  139  A    between atoms: _337  and  _339
REMARK  140  A    between atoms: _339  and  _340
REMARK  141  A    between atoms: _339  and  _342
REMARK  142  A    between atoms: _342  and  _343
REMARK  143  A    between atoms: _346  and  _348
REMARK  144  A    between atoms: _348  and  _349
REMARK  145  A    between atoms: _348  and  _351
REMARK  146  A    between atoms: _351  and  _352
REMARK  147  A    between atoms: _355  and  _357
REMARK  148  A    between atoms: _357  and  _358
REMARK  149  A    between atoms: _357  and  _360
REMARK  150  A    between atoms: _360  and  _361
REMARK  151  A    between atoms: _364  and  _366
REMARK  152  A    between atoms: _366  and  _367
REMARK  153  A    between atoms: _369  and  _371
REMARK  154  A    between atoms: _371  and  _372
REMARK  155  A    between atoms: _375  and  _377
REMARK  156  A    between atoms: _377  and  _378
REMARK  157  A    between atoms: _377  and  _380
REMARK  158  A    between atoms: _380  and  _381
REMARK  159  A    between atoms: _384  and  _386
REMARK  160  A    between atoms: _386  and  _387
REMARK  161  A    between atoms: _386  and  _389
REMARK  162  A    between atoms: _389  and  _390
REMARK  163  A    between atoms: _393  and  _395
REMARK  164  A    between atoms: _395  and  _396
REMARK  165  A    between atoms: _395  and  _398
REMARK  166  A    between atoms: _398  and  _399
REMARK  167  A    between atoms: _402  and  _404
REMARK  168  A    between atoms: _404  and  _405
REMARK  169  A    between atoms: _404  and  _407
REMARK  170  A    between atoms: _410  and  _412
REMARK  171  A    between atoms: _412  and  _413
REMARK  172  A    between atoms: _412  and  _415
REMARK  173  A    between atoms: _415  and  _416
REMARK  174  A    between atoms: _419  and  _421
REMARK  175  A    between atoms: _421  and  _422
REMARK  176  A    between atoms: _421  and  _424
REMARK  177  A    between atoms: _424  and  _425
REMARK  178  A    between atoms: _425  and  _426
REMARK  179  A    between atoms: _426  and  _427
REMARK  180  A    between atoms: _427  and  _428
REMARK  181  A    between atoms: _432  and  _434
REMARK  182  A    between atoms: _434  and  _435
REMARK  183  A    between atoms: _434  and  _437
REMARK  184  A    between atoms: _437  and  _438
REMARK  185  A    between atoms: _438  and  _439
REMARK  186  A    between atoms: _441  and  _443
REMARK  187  A    between atoms: _443  and  _444
REMARK  188  A    between atoms: _443  and  _446
REMARK  189  A    between atoms: _446  and  _447
REMARK  190  A    between atoms: _450  and  _452
REMARK  191  A    between atoms: _452  and  _453
REMARK  192  A    between atoms: _455  and  _457
REMARK  193  A    between atoms: _457  and  _458
REMARK  194  A    between atoms: _460  and  _462
REMARK  195  A    between atoms: _462  and  _463
REMARK  196  A    between atoms: _462  and  _465
REMARK  197  A    between atoms: _465  and  _466
REMARK  198  A    between atoms: _469  and  _471
REMARK  199  A    between atoms: _471  and  _472
REMARK  200  A    between atoms: _474  and  _476
REMARK  201  A    between atoms: _476  and  _477
REMARK  202  A    between atoms: _479  and  _481
REMARK  203  A    between atoms: _481  and  _482
REMARK  204  A    between atoms: _481  and  _484
REMARK  205  A    between atoms: _484  and  _485
REMARK  206  A    between atoms: _491  and  _493
REMARK  207  A    between atoms: _493  and  _494
REMARK  208  A    between atoms: _493  and  _496
REMARK  209  A    between atoms: _496  and  _497
REMARK  210  A    between atoms: _500  and  _502
REMARK  211  A    between atoms: _502  and  _503
REMARK  212  A    between atoms: _502  and  _505
REMARK  213  A    between atoms: _508  and  _510
REMARK  214  A    between atoms: _510  and  _511
REMARK  215  A    between atoms: _510  and  _513
REMARK  216  A    between atoms: _513  and  _514
REMARK  217  A    between atoms: _517  and  _519
REMARK  218  A    between atoms: _519  and  _520
REMARK  219  A    between atoms: _519  and  _522
REMARK  220  A    between atoms: _522  and  _523
REMARK  221  A    between atoms: _527  and  _528
REMARK  222  A    between atoms: _533  and  _535
REMARK  223  A    between atoms: _535  and  _536
REMARK  224  A    between atoms: _535  and  _538
REMARK  225  A    between atoms: _541  and  _543
REMARK  226  A    between atoms: _543  and  _544
REMARK  227  A    between atoms: _543  and  _546
REMARK  228  A    between atoms: _546  and  _547
REMARK  229  A    between atoms: _552  and  _554
REMARK  230  A    between atoms: _554  and  _555
REMARK  231  A    between atoms: _554  and  _557
REMARK  232  A    between atoms: _557  and  _558
REMARK  233  A    between atoms: _561  and  _563
REMARK  234  A    between atoms: _563  and  _564
REMARK  235  A    between atoms: _563  and  _566
REMARK  236  A    between atoms: _566  and  _567
REMARK  237  A    between atoms: _570  and  _572
REMARK  238  A    between atoms: _572  and  _573
REMARK  239  A    between atoms: _575  and  _577
REMARK  240  A    between atoms: _577  and  _578
REMARK  241  A    between atoms: _577  and  _580
REMARK  242  A    between atoms: _580  and  _581
REMARK  243  A    between atoms: _581  and  _582
REMARK  244  A    between atoms: _582  and  _583
REMARK  245  A    between atoms: _592  and  _594
REMARK  246  A    between atoms: _594  and  _595
REMARK  247  A    between atoms: _594  and  _597
REMARK  248  A    between atoms: _597  and  _598
REMARK                            x       y       z     vdW  Elec       q    Type
REMARK                         _______ _______ _______ _____ _____    ______ ____
ROOT
ATOM      1  C   ALA A   6      19.726  21.705   2.097  0.00  0.00    +0.241 C 
ATOM      2  N   ASP A   7      20.186  20.591   2.658  0.00  0.00    -0.297 N 
ATOM      3  H   ASP A   7      19.615  20.097   3.374  0.00  0.00    +0.150 HD
ATOM      4  O   ALA A   6      20.365  22.329   1.248  0.00  0.00    -0.273 OA
ENDROOT
BRANCH   1   5
ATOM      5  CA  ALA A   6      18.360  22.193   2.560  0.00  0.00    +0.149 C 
ATOM      6  CB  ALA A   6      17.356  22.112   1.406  0.00  0.00    +0.031 C 
BRANCH   5   9
ATOM      7  C   GLY A   5      18.446  23.851   4.344  0.00  0.00    +0.243 C 
ATOM      8  O   GLY A   5      18.366  22.981   5.217  0.00  0.00    -0.273 OA
ATOM      9  N   ALA A   6      18.452  23.566   3.045  0.00  0.00    -0.297 N 
ATOM     10  H   ALA A   6      18.524  24.342   2.357  0.00  0.00    +0.150 HD
BRANCH   7  11
ATOM     11  CA  GLY A   5      18.547  25.324   4.712  0.00  0.00    +0.176 C 
BRANCH  11  13
ATOM     12  C   THR A   4      19.930  26.440   3.069  0.00  0.00    +0.243 C 
ATOM     13  N   GLY A   5      18.717  26.199   3.559  0.00  0.00    -0.295 N 
ATOM     14  H   GLY A   5      17.884  26.638   3.116  0.00  0.00    +0.150 HD
ATOM     15  O   THR A   4      20.951  25.948   3.550  0.00  0.00    -0.273 OA
BRANCH  12  16
ATOM     16  CA  THR A   4      20.012  27.369   1.850  0.00  0.00    +0.176 C 
BRANCH  16  18
ATOM     17  C   ASP A   3      18.169  26.516   0.512  0.00  0.00    +0.241 C 
ATOM     18  N   THR A   4      18.723  27.520   1.190  0.00  0.00    -0.295 N 
ATOM     19  H   THR A   4      18.224  28.431   1.249  0.00  0.00    +0.150 HD
ATOM     20  O   ASP A   3      18.691  25.406   0.409  0.00  0.00    -0.273 OA
BRANCH  17  21
ATOM     21  CA  ASP A   3      16.815  26.800  -0.132  0.00  0.00    +0.160 C 
BRANCH  21  24
ATOM     22  C   LEU A   2      16.389  28.137  -2.114  0.00  0.00    +0.241 C 
ATOM     23  O   LEU A   2      16.030  29.105  -1.450  0.00  0.00    -0.273 OA
ATOM     24  N   ASP A   3      16.838  27.012  -1.572  0.00  0.00    -0.297 N 
ATOM     25  H   ASP A   3      17.215  26.265  -2.190  0.00  0.00    +0.150 HD
BRANCH  22  26
ATOM     26  CA  LEU A   2      16.351  28.179  -3.637  0.00  0.00    +0.149 C 
BRANCH  26  29
ATOM     27  C   LEU A   1      14.210  27.060  -3.875  0.00  0.00    +0.238 C 
ATOM     28  O   LEU A   1      14.731  25.963  -3.697  0.00  0.00    -0.274 OA
ATOM     29  N   LEU A   2      14.913  28.191  -3.900  0.00  0.00    -0.297 N 
ATOM     30  H   LEU A   2      14.435  29.091  -4.108  0.00  0.00    +0.150 HD
BRANCH  27  31
ATOM     31  CA  LEU A   1      12.704  27.164  -4.100  0.00  0.00    +0.145 C 
BRANCH  31  32
ATOM     32  N   LEU A   1      12.259  26.225  -5.114  0.00  0.00    -0.238 NA
ATOM     33  H   LEU A   1      12.083  25.237  -4.840  0.00  0.00    +0.142 HD
ENDBRANCH  31  32
BRANCH  31  34
ATOM     34  CB  LEU A   1      11.960  26.841  -2.802  0.00  0.00    +0.026 C 
BRANCH  34  35
ATOM     35  CG  LEU A   1      12.156  27.680  -1.544  0.00  0.00    +0.002 C 
ATOM     36  CD2 LEU A   1      11.414  27.008  -0.392  0.00  0.00    +0.000 C 
ATOM     37  CD1 LEU A   1      11.629  29.082  -1.766  0.00  0.00    +0.000 C 
ENDBRANCH  34  35
ENDBRANCH  31  34
ENDBRANCH  27  31
ENDBRANCH  26  29
BRANCH  26  38
ATOM     38  CB  LEU A   2      17.010  29.451  -4.167  0.00  0.00    +0.029 C 
BRANCH  38  39
ATOM     39  CG  LEU A   2      16.884  29.659  -5.678  0.00  0.00    +0.002 C 
ATOM     40  CD2 LEU A   2      17.630  30.928  -6.067  0.00  0.00    +0.000 C 
ATOM     41  CD1 LEU A   2      17.447  28.454  -6.433  0.00  0.00    +0.000 C 
ENDBRANCH  38  39
ENDBRANCH  26  38
ENDBRANCH  22  26
ENDBRANCH  21  24
BRANCH  21  42
ATOM     42  CB  ASP A   3      15.858  25.641   0.136  0.00  0.00    +0.143 C 
BRANCH  42  43
ATOM     43  CG  ASP A   3      15.546  25.464   1.598  0.00  0.00    +0.367 C 
ATOM     44  OD2 ASP A   3      16.163  26.149   2.437  0.00  0.00    -0.246 OA
ATOM     45  OD1 ASP A   3      14.675  24.630   1.893  0.00  0.00    -0.246 OA
ENDBRANCH  42  43
ENDBRANCH  21  42
ENDBRANCH  17  21
ENDBRANCH  16  18
BRANCH  16  46
ATOM     46  CB  THR A   4      20.564  28.737   2.295  0.00  0.00    +0.137 C 
ATOM     47  CG2 THR A   4      20.788  29.633   1.086  0.00  0.00    +0.034 C 
BRANCH  46  48
ATOM     48  OG1 THR A   4      19.630  29.371   3.177  0.00  0.00    -0.382 OA
ATOM     49  HG1 THR A   4      19.489  28.799   3.973  0.00  0.00    +0.210 HD
ENDBRANCH  46  48
ENDBRANCH  16  46
ENDBRANCH  12  16
ENDBRANCH  11  13
ENDBRANCH   7  11
ENDBRANCH   5   9
ENDBRANCH   1   5
BRANCH   2  50
ATOM     50  CA  ASP A   7      21.488  20.060   2.273  0.00  0.00    +0.160 C 
BRANCH  50  51
ATOM     51  C   ASP A   7      21.451  19.516   0.860  0.00  0.00    +0.241 C 
ATOM     52  N   ASP A   8      20.321  18.906   0.519  0.00  0.00    -0.297 N 
ATOM     53  H   ASP A   8      19.540  18.873   1.205  0.00  0.00    +0.150 HD
ATOM     54  O   ASP A   7      22.424  19.626   0.112  0.00  0.00    -0.273 OA
BRANCH  52  55
ATOM     55  CA  ASP A   8      20.140  18.284  -0.781  0.00  0.00    +0.160 C 
BRANCH  55  56
ATOM     56  C   ASP A   8      18.986  18.896  -1.561  0.00  0.00    +0.241 C 
ATOM     57  O   ASP A   8      18.223  19.713  -1.046  0.00  0.00    -0.273 OA
ATOM     58  N   THR A   9      18.864  18.463  -2.809  0.00  0.00    -0.295 N 
ATOM     59  H   THR A   9      19.545  17.759  -3.159  0.00  0.00    +0.150 HD
BRANCH  58  60
ATOM     60  CA  THR A   9      17.824  18.927  -3.707  0.00  0.00    +0.176 C 
BRANCH  60  61
ATOM     61  C   THR A   9      16.749  17.849  -3.782  0.00  0.00    +0.243 C 
ATOM     62  N   VAL A  10      15.505  18.232  -3.530  0.00  0.00    -0.297 N 
ATOM     63  H   VAL A  10      15.304  19.227  -3.305  0.00  0.00    +0.150 HD
ATOM     64  O   THR A   9      17.041  16.686  -4.050  0.00  0.00    -0.273 OA
BRANCH  62  65
ATOM     65  CA  VAL A  10      14.422  17.264  -3.568  0.00  0.00    +0.149 C 
BRANCH  65  66
ATOM     66  C   VAL A  10      13.269  17.799  -4.390  0.00  0.00    +0.241 C 
ATOM     67  O   VAL A  10      12.807  18.923  -4.191  0.00  0.00    -0.273 OA
ATOM     68  N   LEU A  11      12.809  16.985  -5.328  0.00  0.00    -0.298 N 
ATOM     69  H   LEU A  11      13.230  16.040  -5.437  0.00  0.00    +0.150 HD
BRANCH  68  70
ATOM     70  CA  LEU A  11      11.728  17.389  -6.205  0.00  0.00    +0.137 C 
BRANCH  70  71
ATOM     71  C   LEU A  11      10.504  16.519  -6.021  0.00  0.00    +0.227 C 
ATOM     72  O   LEU A  11      10.599  15.374  -5.583  0.00  0.00    -0.286 OA
ENDBRANCH  70  71
BRANCH  70  73
ATOM     73  CB  LEU A  11      12.186  17.306  -7.662  0.00  0.00    +0.028 C 
BRANCH  73  74
ATOM     74  CG  LEU A  11      13.434  18.106  -8.039  0.00  0.00    +0.002 C 
ATOM     75  CD2 LEU A  11      13.202  19.581  -7.786  0.00  0.00    +0.000 C 
ATOM     76  CD1 LEU A  11      13.760  17.864  -9.508  0.00  0.00    +0.000 C 
ENDBRANCH  73  74
ENDBRANCH  70  73
ENDBRANCH  68  70
ENDBRANCH  65  66
BRANCH  65  77
ATOM     77  CB  VAL A  10      13.948  16.900  -2.136  0.00  0.00    +0.027 C 
ATOM     78  CG2 VAL A  10      13.379  18.111  -1.453  0.00  0.00    +0.002 C 
ATOM     79  CG1 VAL A  10      12.922  15.770  -2.195  0.00  0.00    +0.002 C 
ENDBRANCH  65  77
ENDBRANCH  62  65
ENDBRANCH  60  61
BRANCH  60  80
ATOM     80  CB  THR A   9      18.420  19.182  -5.103  0.00  0.00    +0.137 C 
ATOM     81  CG2 THR A   9      17.331  19.510  -6.119  0.00  0.00    +0.034 C 
BRANCH  80  82
ATOM     82  OG1 THR A   9      19.344  20.274  -5.017  0.00  0.00    -0.382 OA
ATOM     83  HG1 THR A   9      20.066  20.044  -4.380  0.00  0.00    +0.210 HD
ENDBRANCH  80  82
ENDBRANCH  60  80
ENDBRANCH  58  60
ENDBRANCH  55  56
BRANCH  55  84
ATOM     84  CB  ASP A   8      19.874  16.783  -0.601  0.00  0.00    +0.143 C 
BRANCH  84  85
ATOM     85  CG  ASP A   8      20.893  16.107   0.309  0.00  0.00    +0.367 C 
ATOM     86  OD2 ASP A   8      20.487  15.505   1.330  0.00  0.00    -0.246 OA
ATOM     87  OD1 ASP A   8      22.097  16.173   0.005  0.00  0.00    -0.246 OA
ENDBRANCH  84  85
ENDBRANCH  55  84
ENDBRANCH  52  55
ENDBRANCH  50  51
BRANCH  50  88
ATOM     88  CB  ASP A   7      21.916  18.915   3.189  0.00  0.00    +0.143 C 
BRANCH  88  89
ATOM     89  CG  ASP A   7      22.015  19.323   4.638  0.00  0.00    +0.367 C 
ATOM     90  OD2 ASP A   7      21.630  18.506   5.499  0.00  0.00    -0.246 OA
ATOM     91  OD1 ASP A   7      22.491  20.437   4.922  0.00  0.00    -0.246 OA
ENDBRANCH  88  89
ENDBRANCH  50  88
ENDBRANCH   2  50
TORSDOF 39
REMARK  Name = ../refined-set-2016/1d4h/1d4h_pocket.pdb
REMARK  248 active torsions:
REMARK  status: ('A' for Active; 'I' for Inactive)
REMARK    1  A    between atoms: _1  and  _3
REMARK    2  A    between atoms: _3  and  _4
REMARK    3  A    between atoms: _3  and  _6
REMARK    4  A    between atoms: _6  and  _7
REMARK    5  A    between atoms: _7  and  _8
REMARK    6  A    between atoms: _8  and  _9
REMARK    7  A    between atoms: _18  and  _20
REMARK    8  A    between atoms: _20  and  _21
REMARK    9  A    between atoms: _20  and  _23
REMARK   10  A    between atoms: _23  and  _24
REMARK   11  A    between atoms: _27  and  _29
REMARK   12  A    between atoms: _29  and  _30
REMARK   13  A    between atoms: _29  and  _32
REMARK   14  A    between atoms: _32  and  _33
REMARK   15  A    between atoms: _36  and  _38
REMARK   16  A    between atoms: _38  and  _39
REMARK   17  A    between atoms: _38  and  _41
REMARK   18  A    between atoms: _41  and  _42
REMARK   19  A    between atoms: _45  and  _47
REMARK   20  A    between atoms: _47  and  _48
REMARK   21  A    between atoms: _47  and  _50
REMARK   22  A    between atoms: _50  and  _51
REMARK   23  A    between atoms: _54  and  _56
REMARK   24  A    between atoms: _56  and  _57
REMARK   25  A    between atoms: _56  and  _59
REMARK   26  A    between atoms: _59  and  _60
REMARK   27  A    between atoms: _63  and  _65
REMARK   28  A    between atoms: _65  and  _66
REMARK   29  A    between atoms: _68  and  _70
REMARK   30  A    between atoms: _70  and  _71
REMARK   31  A    between atoms: _74  and  _76
REMARK   32  A    between atoms: _76  and  _77
REMARK   33  A    between atoms: _76  and  _79
REMARK   34  A    between atoms: _79  and  _80
REMARK   35  A    between atoms: _83  and  _85
REMARK   36  A    between atoms: _85  and  _86
REMARK   37  A    between atoms: _85  and  _88
REMARK   38  A    between atoms: _88  and  _89
REMARK   39  A    between atoms: _92  and  _94
REMARK   40  A    between atoms: _94  and  _95
REMARK   41  A    between atoms: _94  and  _97
REMARK   42  A    between atoms: _97  and  _98
REMARK   43  A    between atoms: _101  and  _103
REMARK   44  A    between atoms: _103  and  _104
REMARK   45  A    between atoms: _103  and  _106
REMARK   46  A    between atoms: _109  and  _111
REMARK   47  A    between atoms: _111  and  _112
REMARK   48  A    between atoms: _111  and  _114
REMARK   49  A    between atoms: _114  and  _115
REMARK   50  A    between atoms: _118  and  _120
REMARK   51  A    between atoms: _120  and  _121
REMARK   52  A    between atoms: _120  and  _123
REMARK   53  A    between atoms: _123  and  _124
REMARK   54  A    between atoms: _124  and  _125
REMARK   55  A    between atoms: _125  and  _126
REMARK   56  A    between atoms: _126  and  _127
REMARK   57  A    between atoms: _131  and  _133
REMARK   58  A    between atoms: _133  and  _134
REMARK   59  A    between atoms: _133  and  _136
REMARK   60  A    between atoms: _136  and  _137
REMARK   61  A    between atoms: _137  and  _138
REMARK   62  A    between atoms: _140  and  _142
REMARK   63  A    between atoms: _142  and  _143
REMARK   64  A    between atoms: _142  and  _145
REMARK   65  A    between atoms: _145  and  _146
REMARK   66  A    between atoms: _149  and  _151
REMARK   67  A    between atoms: _151  and  _152
REMARK   68  A    between atoms: _154  and  _156
REMARK   69  A    between atoms: _156  and  _157
REMARK   70  A    between atoms: _159  and  _161
REMARK   71  A    between atoms: _161  and  _162
REMARK   72  A    between atoms: _161  and  _164
REMARK   73  A    between atoms: _164  and  _165
REMARK   74  A    between atoms: _168  and  _170
REMARK   75  A    between atoms: _170  and  _171
REMARK   76  A    between atoms: _173  and  _175
REMARK   77  A    between atoms: _175  and  _176
REMARK   78  A    between atoms: _178  and  _180
REMARK   79  A    between atoms: _180  and  _181
REMARK   80  A    between atoms: _180  and  _183
REMARK   81  A    between atoms: _183  and  _184
REMARK   82  A    between atoms: _190  and  _192
REMARK   83  A    between atoms: _192  and  _193
REMARK   84  A    between atoms: _192  and  _195
REMARK   85  A    between atoms: _195  and  _196
REMARK   86  A    between atoms: _199  and  _201
REMARK   87  A    between atoms: _201  and  _202
REMARK   88  A    between atoms: _201  and  _204
REMARK   89  A    between atoms: _207  and  _209
REMARK   90  A    between atoms: _209  and  _210
REMARK   91  A    between atoms: _209  and  _212
REMARK   92  A    between atoms: _212  and  _213
REMARK   93  A    between atoms: _216  and  _218
REMARK   94  A    between atoms: _218  and  _219
REMARK   95  A    between atoms: _218  and  _221
REMARK   96  A    between atoms: _221  and  _222
REMARK   97  A    between atoms: _226  and  _227
REMARK   98  A    between atoms: _232  and  _234
REMARK   99  A    between atoms: _234  and  _235
REMARK  100  A    between atoms: _234  and  _237
REMARK  101  A    between atoms: _240  and  _242
REMARK  102  A    between atoms: _242  and  _243
REMARK  103  A    between atoms: _242  and  _245
REMARK  104  A    between atoms: _245  and  _246
REMARK  105  A    between atoms: _251  and  _253
REMARK  106  A    between atoms: _253  and  _254
REMARK  107  A    between atoms: _253  and  _256
REMARK  108  A    between atoms: _256  and  _257
REMARK  109  A    between atoms: _260  and  _262
REMARK  110  A    between atoms: _262  and  _263
REMARK  111  A    between atoms: _262  and  _265
REMARK  112  A    between atoms: _265  and  _266
REMARK  113  A    between atoms: _269  and  _271
REMARK  114  A    between atoms: _271  and  _272
REMARK  115  A    between atoms: _274  and  _276
REMARK  116  A    between atoms: _276  and  _277
REMARK  117  A    between atoms: _276  and  _279
REMARK  118  A    between atoms: _279  and  _280
REMARK  119  A    between atoms: _280  and  _281
REMARK  120  A    between atoms: _281  and  _282
REMARK  121  A    between atoms: _291  and  _293
REMARK  122  A    between atoms: _293  and  _294
REMARK  123  A    between atoms: _293  and  _296
REMARK  124  A    between atoms: _296  and  _297
REMARK  125  A    between atoms: _302  and  _304
REMARK  126  A    between atoms: _304  and  _305
REMARK  127  A    between atoms: _304  and  _307
REMARK  128  A    between atoms: _307  and  _308
REMARK  129  A    between atoms: _308  and  _309
REMARK  130  A    between atoms: _309  and  _310
REMARK  131  A    between atoms: _319  and  _321
REMARK  132  A    between atoms: _321  and  _322
REMARK  133  A    between atoms: _321  and  _324
REMARK  134  A    between atoms: _324  and  _325
REMARK  135  A    between atoms: _328  and  _330
REMARK  136  A    between atoms: _330  and  _331
REMARK  137  A    between atoms: _330  and  _333
REMARK  138  A    between atoms: _333  and  _334
REMARK  139  A    between atoms: _337  and  _339
REMARK  140  A    between atoms: _339  and  _340
REMARK  141  A    between atoms: _339  and  _342
REMARK  142  A    between atoms: _342  and  _343
REMARK  143  A    between atoms: _346  and  _348
REMARK  144  A    between atoms: _348  and  _349
REMARK  145  A    between atoms: _348  and  _351
REMARK  146  A    between atoms: _351  and  _352
REMARK  147  A    between atoms: _355  and  _357
REMARK  148  A    between atoms: _357  and  _358
REMARK  149  A    between atoms: _357  and  _360
REMARK  150  A    between atoms: _360  and  _361
REMARK  151  A    between atoms: _364  and  _366
REMARK  152  A    between atoms: _366  and  _367
REMARK  153  A    between atoms: _369  and  _371
REMARK  154  A    between atoms: _371  and  _372
REMARK  155  A    between atoms: _375  and  _377
REMARK  156  A    between atoms: _377  and  _378
REMARK  157  A    between atoms: _377  and  _380
REMARK  158  A    between atoms: _380  and  _381
REMARK  159  A    between atoms: _384  and  _386
REMARK  160  A    between atoms: _386  and  _387
REMARK  161  A    between atoms: _386  and  _389
REMARK  162  A    between atoms: _389  and  _390
REMARK  163  A    between atoms: _393  and  _395
REMARK  164  A    between atoms: _395  and  _396
REMARK  165  A    between atoms: _395  and  _398
REMARK  166  A    between atoms: _398  and  _399
REMARK  167  A    between atoms: _402  and  _404
REMARK  168  A    between atoms: _404  and  _405
REMARK  169  A    between atoms: _404  and  _407
REMARK  170  A    between atoms: _410  and  _412
REMARK  171  A    between atoms: _412  and  _413
REMARK  172  A    between atoms: _412  and  _415
REMARK  173  A    between atoms: _415  and  _416
REMARK  174  A    between atoms: _419  and  _421
REMARK  175  A    between atoms: _421  and  _422
REMARK  176  A    between atoms: _421  and  _424
REMARK  177  A    between atoms: _424  and  _425
REMARK  178  A    between atoms: _425  and  _426
REMARK  179  A    between atoms: _426  and  _427
REMARK  180  A    between atoms: _427  and  _428
REMARK  181  A    between atoms: _432  and  _434
REMARK  182  A    between atoms: _434  and  _435
REMARK  183  A    between atoms: _434  and  _437
REMARK  184  A    between atoms: _437  and  _438
REMARK  185  A    between atoms: _438  and  _439
REMARK  186  A    between atoms: _441  and  _443
REMARK  187  A    between atoms: _443  and  _444
REMARK  188  A    between atoms: _443  and  _446
REMARK  189  A    between atoms: _446  and  _447
REMARK  190  A    between atoms: _450  and  _452
REMARK  191  A    between atoms: _452  and  _453
REMARK  192  A    between atoms: _455  and  _457
REMARK  193  A    between atoms: _457  and  _458
REMARK  194  A    between atoms: _460  and  _462
REMARK  195  A    between atoms: _462  and  _463
REMARK  196  A    between atoms: _462  and  _465
REMARK  197  A    between atoms: _465  and  _466
REMARK  198  A    between atoms: _469  and  _471
REMARK  199  A    between atoms: _471  and  _472
REMARK  200  A    between atoms: _474  and  _476
REMARK  201  A    between atoms: _476  and  _477
REMARK  202  A    between atoms: _479  and  _481
REMARK  203  A    between atoms: _481  and  _482
REMARK  204  A    between atoms: _481  and  _484
REMARK  205  A    between atoms: _484  and  _485
REMARK  206  A    between atoms: _491  and  _493
REMARK  207  A    between atoms: _493  and  _494
REMARK  208  A    between atoms: _493  and  _496
REMARK  209  A    between atoms: _496  and  _497
REMARK  210  A    between atoms: _500  and  _502
REMARK  211  A    between atoms: _502  and  _503
REMARK  212  A    between atoms: _502  and  _505
REMARK  213  A    between atoms: _508  and  _510
REMARK  214  A    between atoms: _510  and  _511
REMARK  215  A    between atoms: _510  and  _513
REMARK  216  A    between atoms: _513  and  _514
REMARK  217  A    between atoms: _517  and  _519
REMARK  218  A    between atoms: _519  and  _520
REMARK  219  A    between atoms: _519  and  _522
REMARK  220  A    between atoms: _522  and  _523
REMARK  221  A    between atoms: _527  and  _528
REMARK  222  A    between atoms: _533  and  _535
REMARK  223  A    between atoms: _535  and  _536
REMARK  224  A    between atoms: _535  and  _538
REMARK  225  A    between atoms: _541  and  _543
REMARK  226  A    between atoms: _543  and  _544
REMARK  227  A    between atoms: _543  and  _546
REMARK  228  A    between atoms: _546  and  _547
REMARK  229  A    between atoms: _552  and  _554
REMARK  230  A    between atoms: _554  and  _555
REMARK  231  A    between atoms: _554  and  _557
REMARK  232  A    between atoms: _557  and  _558
REMARK  233  A    between atoms: _561  and  _563
REMARK  234  A    between atoms: _563  and  _564
REMARK  235  A    between atoms: _563  and  _566
REMARK  236  A    between atoms: _566  and  _567
REMARK  237  A    between atoms: _570  and  _572
REMARK  238  A    between atoms: _572  and  _573
REMARK  239  A    between atoms: _575  and  _577
REMARK  240  A    between atoms: _577  and  _578
REMARK  241  A    between atoms: _577  and  _580
REMARK  242  A    between atoms: _580  and  _581
REMARK  243  A    between atoms: _581  and  _582
REMARK  244  A    between atoms: _582  and  _583
REMARK  245  A    between atoms: _592  and  _594
REMARK  246  A    between atoms: _594  and  _595
REMARK  247  A    between atoms: _594  and  _597
REMARK  248  A    between atoms: _597  and  _598
REMARK                            x       y       z     vdW  Elec       q    Type
REMARK                         _______ _______ _______ _____ _____    ______ ____
ROOT
ATOM      1  C   GLY A   5      12.433  18.540   9.293  0.00  0.00    +0.243 C 
ATOM      2  O   GLY A   5      12.600  17.833  10.288  0.00  0.00    -0.273 OA
ATOM      3  N   ILE A   6      11.739  19.671   9.329  0.00  0.00    -0.297 N 
ATOM      4  H   ILE A   6      11.608  20.224   8.458  0.00  0.00    +0.150 HD
ENDROOT
BRANCH   3   5
ATOM      5  CA  ILE A   6      11.159  20.143  10.580  0.00  0.00    +0.149 C 
BRANCH   5   6
ATOM      6  C   ILE A   6      10.033  19.262  11.112  0.00  0.00    +0.241 C 
ATOM      7  O   ILE A   6       9.806  19.216  12.321  0.00  0.00    -0.273 OA
ATOM      8  N   GLY A   7       9.326  18.571  10.222  0.00  0.00    -0.295 N 
ATOM      9  H   GLY A   7       9.565  18.623   9.211  0.00  0.00    +0.150 HD
BRANCH   8  10
ATOM     10  CA  GLY A   7       8.216  17.742  10.669  0.00  0.00    +0.176 C 
BRANCH  10  11
ATOM     11  C   GLY A   7       8.496  16.265  10.867  0.00  0.00    +0.243 C 
ATOM     12  O   GLY A   7       7.637  15.525  11.350  0.00  0.00    -0.273 OA
ATOM     13  N   GLY A   8       9.697  15.832  10.509  0.00  0.00    -0.295 N 
ATOM     14  H   GLY A   8      10.395  16.503  10.128  0.00  0.00    +0.150 HD
BRANCH  13  15
ATOM     15  CA  GLY A   8      10.046  14.431  10.644  0.00  0.00    +0.176 C 
BRANCH  15  16
ATOM     16  C   GLY A   8      10.837  13.984   9.434  0.00  0.00    +0.243 C 
ATOM     17  N   PHE A   9      10.823  12.686   9.146  0.00  0.00    -0.297 N 
ATOM     18  H   PHE A   9      10.271  12.036   9.742  0.00  0.00    +0.150 HD
ATOM     19  O   GLY A   8      11.444  14.809   8.760  0.00  0.00    -0.273 OA
BRANCH  17  20
ATOM     20  CA  PHE A   9      11.570  12.157   8.007  0.00  0.00    +0.153 C 
BRANCH  20  21
ATOM     21  C   PHE A   9      10.681  11.625   6.892  0.00  0.00    +0.241 C 
ATOM     22  O   PHE A   9       9.537  11.228   7.121  0.00  0.00    -0.273 OA
ATOM     23  N   ILE A  10      11.214  11.628   5.676  0.00  0.00    -0.298 N 
ATOM     24  H   ILE A  10      12.167  12.021   5.537  0.00  0.00    +0.150 HD
BRANCH  23  25
ATOM     25  CA  ILE A  10      10.489  11.092   4.537  0.00  0.00    +0.137 C 
BRANCH  25  26
ATOM     26  C   ILE A  10      11.482  10.278   3.724  0.00  0.00    +0.227 C 
ATOM     27  O   ILE A  10      12.680  10.562   3.722  0.00  0.00    -0.286 OA
ENDBRANCH  25  26
BRANCH  25  28
ATOM     28  CB  ILE A  10       9.872  12.194   3.627  0.00  0.00    +0.026 C 
ATOM     29  CG2 ILE A  10       8.876  13.031   4.425  0.00  0.00    +0.002 C 
BRANCH  28  30
ATOM     30  CG1 ILE A  10      10.971  13.070   3.020  0.00  0.00    +0.002 C 
ATOM     31  CD1 ILE A  10      10.448  14.077   2.006  0.00  0.00    +0.000 C 
ENDBRANCH  28  30
ENDBRANCH  25  28
ENDBRANCH  23  25
ENDBRANCH  20  21
BRANCH  20  32
ATOM     32  CB  PHE A   9      12.504  11.020   8.454  0.00  0.00    +0.055 C 
BRANCH  32  33
ATOM     33  CG  PHE A   9      13.605  11.455   9.378  0.00  0.00    -0.020 A 
ATOM     34  CD2 PHE A   9      13.323  11.879  10.671  0.00  0.00    -0.004 A 
ATOM     35  CE2 PHE A   9      14.344  12.277  11.533  0.00  0.00    -0.000 A 
ATOM     36  CZ  PHE A   9      15.668  12.252  11.098  0.00  0.00    -0.000 A 
ATOM     37  CE1 PHE A   9      15.961  11.831   9.808  0.00  0.00    -0.000 A 
ATOM     38  CD1 PHE A   9      14.929  11.435   8.955  0.00  0.00    -0.004 A 
ENDBRANCH  32  33
ENDBRANCH  20  32
ENDBRANCH  17  20
ENDBRANCH  15  16
ENDBRANCH  13  15
ENDBRANCH  10  11
ENDBRANCH   8  10
ENDBRANCH   5   6
BRANCH   5  39
ATOM     39  CB  ILE A   6      10.597  21.576  10.454  0.00  0.00    +0.027 C 
ATOM     40  CG2 ILE A   6      11.705  22.543  10.086  0.00  0.00    +0.002 C 
BRANCH  39  41
ATOM     41  CG1 ILE A   6       9.472  21.602   9.423  0.00  0.00    +0.002 C 
ATOM     42  CD1 ILE A   6       8.706  22.908   9.397  0.00  0.00    +0.000 C 
ENDBRANCH  39  41
ENDBRANCH   5  39
ENDBRANCH   3   5
BRANCH   1  43
ATOM     43  CA  GLY A   5      13.012  18.124   7.957  0.00  0.00    +0.176 C 
BRANCH  43  45
ATOM     44  C   GLY A   4      14.583  16.288   7.793  0.00  0.00    +0.243 C 
ATOM     45  N   GLY A   5      13.348  16.716   8.027  0.00  0.00    -0.295 N 
ATOM     46  H   GLY A   5      12.607  16.027   8.265  0.00  0.00    +0.150 HD
ATOM     47  O   GLY A   4      15.507  17.031   7.479  0.00  0.00    -0.273 OA
BRANCH  44  48
ATOM     48  CA  GLY A   4      14.798  14.797   7.919  0.00  0.00    +0.176 C 
BRANCH  48  50
ATOM     49  C   ILE A   3      15.013  13.497   5.906  0.00  0.00    +0.241 C 
ATOM     50  N   GLY A   4      15.585  14.260   6.829  0.00  0.00    -0.295 N 
ATOM     51  H   GLY A   4      16.601  14.473   6.769  0.00  0.00    +0.150 HD
ATOM     52  O   ILE A   3      13.819  13.198   5.926  0.00  0.00    -0.273 OA
BRANCH  49  53
ATOM     53  CA  ILE A   3      15.928  12.977   4.810  0.00  0.00    +0.149 C 
BRANCH  53  56
ATOM     54  C   MET A   2      16.433  10.626   4.595  0.00  0.00    +0.241 C 
ATOM     55  O   MET A   2      17.605  10.810   4.905  0.00  0.00    -0.273 OA
ATOM     56  N   ILE A   3      15.548  11.610   4.492  0.00  0.00    -0.297 N 
ATOM     57  H   ILE A   3      14.577  11.402   4.182  0.00  0.00    +0.150 HD
BRANCH  54  58
ATOM     58  CA  MET A   2      15.948   9.230   4.274  0.00  0.00    +0.149 C 
BRANCH  58  60
ATOM     59  C   LYS A   1      16.545   8.330   2.095  0.00  0.00    +0.238 C 
ATOM     60  N   MET A   2      16.901   8.698   3.316  0.00  0.00    -0.297 N 
ATOM     61  H   MET A   2      17.897   8.603   3.599  0.00  0.00    +0.150 HD
ATOM     62  O   LYS A   1      15.385   8.361   1.687  0.00  0.00    -0.274 OA
BRANCH  59  63
ATOM     63  CA  LYS A   1      17.669   7.816   1.215  0.00  0.00    +0.145 C 
BRANCH  63  64
ATOM     64  N   LYS A   1      17.120   6.821   0.316  0.00  0.00    -0.238 NA
ATOM     65  H   LYS A   1      16.108   6.852   0.079  0.00  0.00    +0.142 HD
ENDBRANCH  63  64
BRANCH  63  66
ATOM     66  CB  LYS A   1      18.304   8.976   0.438  0.00  0.00    +0.026 C 
BRANCH  66  67
ATOM     67  CG  LYS A   1      19.052   9.966   1.331  0.00  0.00    -0.000 C 
BRANCH  67  68
ATOM     68  CD  LYS A   1      19.783  11.020   0.516  0.00  0.00    -0.024 C 
BRANCH  68  69
ATOM     69  CE  LYS A   1      20.490  12.031   1.408  0.00  0.00    -0.086 C 
BRANCH  69  70
ATOM     70  NZ  LYS A   1      21.559  11.407   2.230  0.00  0.00    +0.380 N 
ATOM     71  HZ1 LYS A   1      21.143  10.674   2.839  0.00  0.00    -0.089 HD
ATOM     72  HZ2 LYS A   1      22.011  12.135   2.820  0.00  0.00    -0.089 HD
ATOM     73  HZ3 LYS A   1      22.269  10.977   1.604  0.00  0.00    -0.089 HD
ENDBRANCH  69  70
ENDBRANCH  68  69
ENDBRANCH  67  68
ENDBRANCH  66  67
ENDBRANCH  63  66
ENDBRANCH  59  63
ENDBRANCH  58  60
BRANCH  58  74
ATOM     74  CB  MET A   2      15.955   8.398   5.557  0.00  0.00    +0.041 C 
BRANCH  74  75
ATOM     75  CG  MET A   2      15.411   6.998   5.402  0.00  0.00    +0.060 C 
BRANCH  75  76
ATOM     76  SD  MET A   2      13.646   7.019   5.118  0.00  0.00    -0.139 S 
ATOM     77  CE  MET A   2      13.052   7.367   6.785  0.00  0.00    +0.069 C 
ENDBRANCH  75  76
ENDBRANCH  74  75
ENDBRANCH  58  74
ENDBRANCH  54  58
ENDBRANCH  53  56
BRANCH  53  78
ATOM     78  CB  ILE A   3      15.854  13.906   3.570  0.00  0.00    +0.027 C 
ATOM     79  CG2 ILE A   3      16.879  13.455   2.538  0.00  0.00    +0.002 C 
BRANCH  78  80
ATOM     80  CG1 ILE A   3      14.448  13.900   2.968  0.00  0.00    +0.002 C 
ATOM     81  CD1 ILE A   3      14.267  14.882   1.804  0.00  0.00    +0.000 C 
ENDBRANCH  78  80
ENDBRANCH  53  78
ENDBRANCH  49  53
ENDBRANCH  48  50
ENDBRANCH  44  48
ENDBRANCH  43  45
ENDBRANCH   1  43
TORSDOF 36
REMARK  Name = ../refined-set-2016/1d4h/1d4h_pocket.pdb
REMARK  248 active torsions:
REMARK  status: ('A' for Active; 'I' for Inactive)
REMARK    1  A    between atoms: _1  and  _3
REMARK    2  A    between atoms: _3  and  _4
REMARK    3  A    between atoms: _3  and  _6
REMARK    4  A    between atoms: _6  and  _7
REMARK    5  A    between atoms: _7  and  _8
REMARK    6  A    between atoms: _8  and  _9
REMARK    7  A    between atoms: _18  and  _20
REMARK    8  A    between atoms: _20  and  _21
REMARK    9  A    between atoms: _20  and  _23
REMARK   10  A    between atoms: _23  and  _24
REMARK   11  A    between atoms: _27  and  _29
REMARK   12  A    between atoms: _29  and  _30
REMARK   13  A    between atoms: _29  and  _32
REMARK   14  A    between atoms: _32  and  _33
REMARK   15  A    between atoms: _36  and  _38
REMARK   16  A    between atoms: _38  and  _39
REMARK   17  A    between atoms: _38  and  _41
REMARK   18  A    between atoms: _41  and  _42
REMARK   19  A    between atoms: _45  and  _47
REMARK   20  A    between atoms: _47  and  _48
REMARK   21  A    between atoms: _47  and  _50
REMARK   22  A    between atoms: _50  and  _51
REMARK   23  A    between atoms: _54  and  _56
REMARK   24  A    between atoms: _56  and  _57
REMARK   25  A    between atoms: _56  and  _59
REMARK   26  A    between atoms: _59  and  _60
REMARK   27  A    between atoms: _63  and  _65
REMARK   28  A    between atoms: _65  and  _66
REMARK   29  A    between atoms: _68  and  _70
REMARK   30  A    between atoms: _70  and  _71
REMARK   31  A    between atoms: _74  and  _76
REMARK   32  A    between atoms: _76  and  _77
REMARK   33  A    between atoms: _76  and  _79
REMARK   34  A    between atoms: _79  and  _80
REMARK   35  A    between atoms: _83  and  _85
REMARK   36  A    between atoms: _85  and  _86
REMARK   37  A    between atoms: _85  and  _88
REMARK   38  A    between atoms: _88  and  _89
REMARK   39  A    between atoms: _92  and  _94
REMARK   40  A    between atoms: _94  and  _95
REMARK   41  A    between atoms: _94  and  _97
REMARK   42  A    between atoms: _97  and  _98
REMARK   43  A    between atoms: _101  and  _103
REMARK   44  A    between atoms: _103  and  _104
REMARK   45  A    between atoms: _103  and  _106
REMARK   46  A    between atoms: _109  and  _111
REMARK   47  A    between atoms: _111  and  _112
REMARK   48  A    between atoms: _111  and  _114
REMARK   49  A    between atoms: _114  and  _115
REMARK   50  A    between atoms: _118  and  _120
REMARK   51  A    between atoms: _120  and  _121
REMARK   52  A    between atoms: _120  and  _123
REMARK   53  A    between atoms: _123  and  _124
REMARK   54  A    between atoms: _124  and  _125
REMARK   55  A    between atoms: _125  and  _126
REMARK   56  A    between atoms: _126  and  _127
REMARK   57  A    between atoms: _131  and  _133
REMARK   58  A    between atoms: _133  and  _134
REMARK   59  A    between atoms: _133  and  _136
REMARK   60  A    between atoms: _136  and  _137
REMARK   61  A    between atoms: _137  and  _138
REMARK   62  A    between atoms: _140  and  _142
REMARK   63  A    between atoms: _142  and  _143
REMARK   64  A    between atoms: _142  and  _145
REMARK   65  A    between atoms: _145  and  _146
REMARK   66  A    between atoms: _149  and  _151
REMARK   67  A    between atoms: _151  and  _152
REMARK   68  A    between atoms: _154  and  _156
REMARK   69  A    between atoms: _156  and  _157
REMARK   70  A    between atoms: _159  and  _161
REMARK   71  A    between atoms: _161  and  _162
REMARK   72  A    between atoms: _161  and  _164
REMARK   73  A    between atoms: _164  and  _165
REMARK   74  A    between atoms: _168  and  _170
REMARK   75  A    between atoms: _170  and  _171
REMARK   76  A    between atoms: _173  and  _175
REMARK   77  A    between atoms: _175  and  _176
REMARK   78  A    between atoms: _178  and  _180
REMARK   79  A    between atoms: _180  and  _181
REMARK   80  A    between atoms: _180  and  _183
REMARK   81  A    between atoms: _183  and  _184
REMARK   82  A    between atoms: _190  and  _192
REMARK   83  A    between atoms: _192  and  _193
REMARK   84  A    between atoms: _192  and  _195
REMARK   85  A    between atoms: _195  and  _196
REMARK   86  A    between atoms: _199  and  _201
REMARK   87  A    between atoms: _201  and  _202
REMARK   88  A    between atoms: _201  and  _204
REMARK   89  A    between atoms: _207  and  _209
REMARK   90  A    between atoms: _209  and  _210
REMARK   91  A    between atoms: _209  and  _212
REMARK   92  A    between atoms: _212  and  _213
REMARK   93  A    between atoms: _216  and  _218
REMARK   94  A    between atoms: _218  and  _219
REMARK   95  A    between atoms: _218  and  _221
REMARK   96  A    between atoms: _221  and  _222
REMARK   97  A    between atoms: _226  and  _227
REMARK   98  A    between atoms: _232  and  _234
REMARK   99  A    between atoms: _234  and  _235
REMARK  100  A    between atoms: _234  and  _237
REMARK  101  A    between atoms: _240  and  _242
REMARK  102  A    between atoms: _242  and  _243
REMARK  103  A    between atoms: _242  and  _245
REMARK  104  A    between atoms: _245  and  _246
REMARK  105  A    between atoms: _251  and  _253
REMARK  106  A    between atoms: _253  and  _254
REMARK  107  A    between atoms: _253  and  _256
REMARK  108  A    between atoms: _256  and  _257
REMARK  109  A    between atoms: _260  and  _262
REMARK  110  A    between atoms: _262  and  _263
REMARK  111  A    between atoms: _262  and  _265
REMARK  112  A    between atoms: _265  and  _266
REMARK  113  A    between atoms: _269  and  _271
REMARK  114  A    between atoms: _271  and  _272
REMARK  115  A    between atoms: _274  and  _276
REMARK  116  A    between atoms: _276  and  _277
REMARK  117  A    between atoms: _276  and  _279
REMARK  118  A    between atoms: _279  and  _280
REMARK  119  A    between atoms: _280  and  _281
REMARK  120  A    between atoms: _281  and  _282
REMARK  121  A    between atoms: _291  and  _293
REMARK  122  A    between atoms: _293  and  _294
REMARK  123  A    between atoms: _293  and  _296
REMARK  124  A    between atoms: _296  and  _297
REMARK  125  A    between atoms: _302  and  _304
REMARK  126  A    between atoms: _304  and  _305
REMARK  127  A    between atoms: _304  and  _307
REMARK  128  A    between atoms: _307  and  _308
REMARK  129  A    between atoms: _308  and  _309
REMARK  130  A    between atoms: _309  and  _310
REMARK  131  A    between atoms: _319  and  _321
REMARK  132  A    between atoms: _321  and  _322
REMARK  133  A    between atoms: _321  and  _324
REMARK  134  A    between atoms: _324  and  _325
REMARK  135  A    between atoms: _328  and  _330
REMARK  136  A    between atoms: _330  and  _331
REMARK  137  A    between atoms: _330  and  _333
REMARK  138  A    between atoms: _333  and  _334
REMARK  139  A    between atoms: _337  and  _339
REMARK  140  A    between atoms: _339  and  _340
REMARK  141  A    between atoms: _339  and  _342
REMARK  142  A    between atoms: _342  and  _343
REMARK  143  A    between atoms: _346  and  _348
REMARK  144  A    between atoms: _348  and  _349
REMARK  145  A    between atoms: _348  and  _351
REMARK  146  A    between atoms: _351  and  _352
REMARK  147  A    between atoms: _355  and  _357
REMARK  148  A    between atoms: _357  and  _358
REMARK  149  A    between atoms: _357  and  _360
REMARK  150  A    between atoms: _360  and  _361
REMARK  151  A    between atoms: _364  and  _366
REMARK  152  A    between atoms: _366  and  _367
REMARK  153  A    between atoms: _369  and  _371
REMARK  154  A    between atoms: _371  and  _372
REMARK  155  A    between atoms: _375  and  _377
REMARK  156  A    between atoms: _377  and  _378
REMARK  157  A    between atoms: _377  and  _380
REMARK  158  A    between atoms: _380  and  _381
REMARK  159  A    between atoms: _384  and  _386
REMARK  160  A    between atoms: _386  and  _387
REMARK  161  A    between atoms: _386  and  _389
REMARK  162  A    between atoms: _389  and  _390
REMARK  163  A    between atoms: _393  and  _395
REMARK  164  A    between atoms: _395  and  _396
REMARK  165  A    between atoms: _395  and  _398
REMARK  166  A    between atoms: _398  and  _399
REMARK  167  A    between atoms: _402  and  _404
REMARK  168  A    between atoms: _404  and  _405
REMARK  169  A    between atoms: _404  and  _407
REMARK  170  A    between atoms: _410  and  _412
REMARK  171  A    between atoms: _412  and  _413
REMARK  172  A    between atoms: _412  and  _415
REMARK  173  A    between atoms: _415  and  _416
REMARK  174  A    between atoms: _419  and  _421
REMARK  175  A    between atoms: _421  and  _422
REMARK  176  A    between atoms: _421  and  _424
REMARK  177  A    between atoms: _424  and  _425
REMARK  178  A    between atoms: _425  and  _426
REMARK  179  A    between atoms: _426  and  _427
REMARK  180  A    between atoms: _427  and  _428
REMARK  181  A    between atoms: _432  and  _434
REMARK  182  A    between atoms: _434  and  _435
REMARK  183  A    between atoms: _434  and  _437
REMARK  184  A    between atoms: _437  and  _438
REMARK  185  A    between atoms: _438  and  _439
REMARK  186  A    between atoms: _441  and  _443
REMARK  187  A    between atoms: _443  and  _444
REMARK  188  A    between atoms: _443  and  _446
REMARK  189  A    between atoms: _446  and  _447
REMARK  190  A    between atoms: _450  and  _452
REMARK  191  A    between atoms: _452  and  _453
REMARK  192  A    between atoms: _455  and  _457
REMARK  193  A    between atoms: _457  and  _458
REMARK  194  A    between atoms: _460  and  _462
REMARK  195  A    between atoms: _462  and  _463
REMARK  196  A    between atoms: _462  and  _465
REMARK  197  A    between atoms: _465  and  _466
REMARK  198  A    between atoms: _469  and  _471
REMARK  199  A    between atoms: _471  and  _472
REMARK  200  A    between atoms: _474  and  _476
REMARK  201  A    between atoms: _476  and  _477
REMARK  202  A    between atoms: _479  and  _481
REMARK  203  A    between atoms: _481  and  _482
REMARK  204  A    between atoms: _481  and  _484
REMARK  205  A    between atoms: _484  and  _485
REMARK  206  A    between atoms: _491  and  _493
REMARK  207  A    between atoms: _493  and  _494
REMARK  208  A    between atoms: _493  and  _496
REMARK  209  A    between atoms: _496  and  _497
REMARK  210  A    between atoms: _500  and  _502
REMARK  211  A    between atoms: _502  and  _503
REMARK  212  A    between atoms: _502  and  _505
REMARK  213  A    between atoms: _508  and  _510
REMARK  214  A    between atoms: _510  and  _511
REMARK  215  A    between atoms: _510  and  _513
REMARK  216  A    between atoms: _513  and  _514
REMARK  217  A    between atoms: _517  and  _519
REMARK  218  A    between atoms: _519  and  _520
REMARK  219  A    between atoms: _519  and  _522
REMARK  220  A    between atoms: _522  and  _523
REMARK  221  A    between atoms: _527  and  _528
REMARK  222  A    between atoms: _533  and  _535
REMARK  223  A    between atoms: _535  and  _536
REMARK  224  A    between atoms: _535  and  _538
REMARK  225  A    between atoms: _541  and  _543
REMARK  226  A    between atoms: _543  and  _544
REMARK  227  A    between atoms: _543  and  _546
REMARK  228  A    between atoms: _546  and  _547
REMARK  229  A    between atoms: _552  and  _554
REMARK  230  A    between atoms: _554  and  _555
REMARK  231  A    between atoms: _554  and  _557
REMARK  232  A    between atoms: _557  and  _558
REMARK  233  A    between atoms: _561  and  _563
REMARK  234  A    between atoms: _563  and  _564
REMARK  235  A    between atoms: _563  and  _566
REMARK  236  A    between atoms: _566  and  _567
REMARK  237  A    between atoms: _570  and  _572
REMARK  238  A    between atoms: _572  and  _573
REMARK  239  A    between atoms: _575  and  _577
REMARK  240  A    between atoms: _577  and  _578
REMARK  241  A    between atoms: _577  and  _580
REMARK  242  A    between atoms: _580  and  _581
REMARK  243  A    between atoms: _581  and  _582
REMARK  244  A    between atoms: _582  and  _583
REMARK  245  A    between atoms: _592  and  _594
REMARK  246  A    between atoms: _594  and  _595
REMARK  247  A    between atoms: _594  and  _597
REMARK  248  A    between atoms: _597  and  _598
REMARK                            x       y       z     vdW  Elec       q    Type
REMARK                         _______ _______ _______ _____ _____    ______ ____
ROOT
ATOM      1  CA  VAL A   1      13.043   9.622  -1.147  0.00  0.00    +0.133 C 
ENDROOT
BRANCH   1   2
ATOM      2  CB  VAL A   1      13.665  11.039  -1.176  0.00  0.00    +0.023 C 
ATOM      3  CG2 VAL A   1      12.758  12.022  -0.451  0.00  0.00    +0.002 C 
ATOM      4  CG1 VAL A   1      15.044  11.011  -0.537  0.00  0.00    +0.002 C 
ENDBRANCH   1   2
BRANCH   1   5
ATOM      5  N   VAL A   1      12.964   9.104   0.205  0.00  0.00    -0.239 NA
ATOM      6  H   VAL A   1      13.837   8.835   0.703  0.00  0.00    +0.142 HD
ENDBRANCH   1   5
BRANCH   1   7
ATOM      7  C   VAL A   1      13.887   8.705  -2.008  0.00  0.00    +0.224 C 
ATOM      8  O   VAL A   1      14.595   7.834  -1.497  0.00  0.00    -0.287 OA
ENDBRANCH   1   7
TORSDOF 3
REMARK  Name = ../refined-set-2016/1d4h/1d4h_pocket.pdb
REMARK  248 active torsions:
REMARK  status: ('A' for Active; 'I' for Inactive)
REMARK    1  A    between atoms: _1  and  _3
REMARK    2  A    between atoms: _3  and  _4
REMARK    3  A    between atoms: _3  and  _6
REMARK    4  A    between atoms: _6  and  _7
REMARK    5  A    between atoms: _7  and  _8
REMARK    6  A    between atoms: _8  and  _9
REMARK    7  A    between atoms: _18  and  _20
REMARK    8  A    between atoms: _20  and  _21
REMARK    9  A    between atoms: _20  and  _23
REMARK   10  A    between atoms: _23  and  _24
REMARK   11  A    between atoms: _27  and  _29
REMARK   12  A    between atoms: _29  and  _30
REMARK   13  A    between atoms: _29  and  _32
REMARK   14  A    between atoms: _32  and  _33
REMARK   15  A    between atoms: _36  and  _38
REMARK   16  A    between atoms: _38  and  _39
REMARK   17  A    between atoms: _38  and  _41
REMARK   18  A    between atoms: _41  and  _42
REMARK   19  A    between atoms: _45  and  _47
REMARK   20  A    between atoms: _47  and  _48
REMARK   21  A    between atoms: _47  and  _50
REMARK   22  A    between atoms: _50  and  _51
REMARK   23  A    between atoms: _54  and  _56
REMARK   24  A    between atoms: _56  and  _57
REMARK   25  A    between atoms: _56  and  _59
REMARK   26  A    between atoms: _59  and  _60
REMARK   27  A    between atoms: _63  and  _65
REMARK   28  A    between atoms: _65  and  _66
REMARK   29  A    between atoms: _68  and  _70
REMARK   30  A    between atoms: _70  and  _71
REMARK   31  A    between atoms: _74  and  _76
REMARK   32  A    between atoms: _76  and  _77
REMARK   33  A    between atoms: _76  and  _79
REMARK   34  A    between atoms: _79  and  _80
REMARK   35  A    between atoms: _83  and  _85
REMARK   36  A    between atoms: _85  and  _86
REMARK   37  A    between atoms: _85  and  _88
REMARK   38  A    between atoms: _88  and  _89
REMARK   39  A    between atoms: _92  and  _94
REMARK   40  A    between atoms: _94  and  _95
REMARK   41  A    between atoms: _94  and  _97
REMARK   42  A    between atoms: _97  and  _98
REMARK   43  A    between atoms: _101  and  _103
REMARK   44  A    between atoms: _103  and  _104
REMARK   45  A    between atoms: _103  and  _106
REMARK   46  A    between atoms: _109  and  _111
REMARK   47  A    between atoms: _111  and  _112
REMARK   48  A    between atoms: _111  and  _114
REMARK   49  A    between atoms: _114  and  _115
REMARK   50  A    between atoms: _118  and  _120
REMARK   51  A    between atoms: _120  and  _121
REMARK   52  A    between atoms: _120  and  _123
REMARK   53  A    between atoms: _123  and  _124
REMARK   54  A    between atoms: _124  and  _125
REMARK   55  A    between atoms: _125  and  _126
REMARK   56  A    between atoms: _126  and  _127
REMARK   57  A    between atoms: _131  and  _133
REMARK   58  A    between atoms: _133  and  _134
REMARK   59  A    between atoms: _133  and  _136
REMARK   60  A    between atoms: _136  and  _137
REMARK   61  A    between atoms: _137  and  _138
REMARK   62  A    between atoms: _140  and  _142
REMARK   63  A    between atoms: _142  and  _143
REMARK   64  A    between atoms: _142  and  _145
REMARK   65  A    between atoms: _145  and  _146
REMARK   66  A    between atoms: _149  and  _151
REMARK   67  A    between atoms: _151  and  _152
REMARK   68  A    between atoms: _154  and  _156
REMARK   69  A    between atoms: _156  and  _157
REMARK   70  A    between atoms: _159  and  _161
REMARK   71  A    between atoms: _161  and  _162
REMARK   72  A    between atoms: _161  and  _164
REMARK   73  A    between atoms: _164  and  _165
REMARK   74  A    between atoms: _168  and  _170
REMARK   75  A    between atoms: _170  and  _171
REMARK   76  A    between atoms: _173  and  _175
REMARK   77  A    between atoms: _175  and  _176
REMARK   78  A    between atoms: _178  and  _180
REMARK   79  A    between atoms: _180  and  _181
REMARK   80  A    between atoms: _180  and  _183
REMARK   81  A    between atoms: _183  and  _184
REMARK   82  A    between atoms: _190  and  _192
REMARK   83  A    between atoms: _192  and  _193
REMARK   84  A    between atoms: _192  and  _195
REMARK   85  A    between atoms: _195  and  _196
REMARK   86  A    between atoms: _199  and  _201
REMARK   87  A    between atoms: _201  and  _202
REMARK   88  A    between atoms: _201  and  _204
REMARK   89  A    between atoms: _207  and  _209
REMARK   90  A    between atoms: _209  and  _210
REMARK   91  A    between atoms: _209  and  _212
REMARK   92  A    between atoms: _212  and  _213
REMARK   93  A    between atoms: _216  and  _218
REMARK   94  A    between atoms: _218  and  _219
REMARK   95  A    between atoms: _218  and  _221
REMARK   96  A    between atoms: _221  and  _222
REMARK   97  A    between atoms: _226  and  _227
REMARK   98  A    between atoms: _232  and  _234
REMARK   99  A    between atoms: _234  and  _235
REMARK  100  A    between atoms: _234  and  _237
REMARK  101  A    between atoms: _240  and  _242
REMARK  102  A    between atoms: _242  and  _243
REMARK  103  A    between atoms: _242  and  _245
REMARK  104  A    between atoms: _245  and  _246
REMARK  105  A    between atoms: _251  and  _253
REMARK  106  A    between atoms: _253  and  _254
REMARK  107  A    between atoms: _253  and  _256
REMARK  108  A    between atoms: _256  and  _257
REMARK  109  A    between atoms: _260  and  _262
REMARK  110  A    between atoms: _262  and  _263
REMARK  111  A    between atoms: _262  and  _265
REMARK  112  A    between atoms: _265  and  _266
REMARK  113  A    between atoms: _269  and  _271
REMARK  114  A    between atoms: _271  and  _272
REMARK  115  A    between atoms: _274  and  _276
REMARK  116  A    between atoms: _276  and  _277
REMARK  117  A    between atoms: _276  and  _279
REMARK  118  A    between atoms: _279  and  _280
REMARK  119  A    between atoms: _280  and  _281
REMARK  120  A    between atoms: _281  and  _282
REMARK  121  A    between atoms: _291  and  _293
REMARK  122  A    between atoms: _293  and  _294
REMARK  123  A    between atoms: _293  and  _296
REMARK  124  A    between atoms: _296  and  _297
REMARK  125  A    between atoms: _302  and  _304
REMARK  126  A    between atoms: _304  and  _305
REMARK  127  A    between atoms: _304  and  _307
REMARK  128  A    between atoms: _307  and  _308
REMARK  129  A    between atoms: _308  and  _309
REMARK  130  A    between atoms: _309  and  _310
REMARK  131  A    between atoms: _319  and  _321
REMARK  132  A    between atoms: _321  and  _322
REMARK  133  A    between atoms: _321  and  _324
REMARK  134  A    between atoms: _324  and  _325
REMARK  135  A    between atoms: _328  and  _330
REMARK  136  A    between atoms: _330  and  _331
REMARK  137  A    between atoms: _330  and  _333
REMARK  138  A    between atoms: _333  and  _334
REMARK  139  A    between atoms: _337  and  _339
REMARK  140  A    between atoms: _339  and  _340
REMARK  141  A    between atoms: _339  and  _342
REMARK  142  A    between atoms: _342  and  _343
REMARK  143  A    between atoms: _346  and  _348
REMARK  144  A    between atoms: _348  and  _349
REMARK  145  A    between atoms: _348  and  _351
REMARK  146  A    between atoms: _351  and  _352
REMARK  147  A    between atoms: _355  and  _357
REMARK  148  A    between atoms: _357  and  _358
REMARK  149  A    between atoms: _357  and  _360
REMARK  150  A    between atoms: _360  and  _361
REMARK  151  A    between atoms: _364  and  _366
REMARK  152  A    between atoms: _366  and  _367
REMARK  153  A    between atoms: _369  and  _371
REMARK  154  A    between atoms: _371  and  _372
REMARK  155  A    between atoms: _375  and  _377
REMARK  156  A    between atoms: _377  and  _378
REMARK  157  A    between atoms: _377  and  _380
REMARK  158  A    between atoms: _380  and  _381
REMARK  159  A    between atoms: _384  and  _386
REMARK  160  A    between atoms: _386  and  _387
REMARK  161  A    between atoms: _386  and  _389
REMARK  162  A    between atoms: _389  and  _390
REMARK  163  A    between atoms: _393  and  _395
REMARK  164  A    between atoms: _395  and  _396
REMARK  165  A    between atoms: _395  and  _398
REMARK  166  A    between atoms: _398  and  _399
REMARK  167  A    between atoms: _402  and  _404
REMARK  168  A    between atoms: _404  and  _405
REMARK  169  A    between atoms: _404  and  _407
REMARK  170  A    between atoms: _410  and  _412
REMARK  171  A    between atoms: _412  and  _413
REMARK  172  A    between atoms: _412  and  _415
REMARK  173  A    between atoms: _415  and  _416
REMARK  174  A    between atoms: _419  and  _421
REMARK  175  A    between atoms: _421  and  _422
REMARK  176  A    between atoms: _421  and  _424
REMARK  177  A    between atoms: _424  and  _425
REMARK  178  A    between atoms: _425  and  _426
REMARK  179  A    between atoms: _426  and  _427
REMARK  180  A    between atoms: _427  and  _428
REMARK  181  A    between atoms: _432  and  _434
REMARK  182  A    between atoms: _434  and  _435
REMARK  183  A    between atoms: _434  and  _437
REMARK  184  A    between atoms: _437  and  _438
REMARK  185  A    between atoms: _438  and  _439
REMARK  186  A    between atoms: _441  and  _443
REMARK  187  A    between atoms: _443  and  _444
REMARK  188  A    between atoms: _443  and  _446
REMARK  189  A    between atoms: _446  and  _447
REMARK  190  A    between atoms: _450  and  _452
REMARK  191  A    between atoms: _452  and  _453
REMARK  192  A    between atoms: _455  and  _457
REMARK  193  A    between atoms: _457  and  _458
REMARK  194  A    between atoms: _460  and  _462
REMARK  195  A    between atoms: _462  and  _463
REMARK  196  A    between atoms: _462  and  _465
REMARK  197  A    between atoms: _465  and  _466
REMARK  198  A    between atoms: _469  and  _471
REMARK  199  A    between atoms: _471  and  _472
REMARK  200  A    between atoms: _474  and  _476
REMARK  201  A    between atoms: _476  and  _477
REMARK  202  A    between atoms: _479  and  _481
REMARK  203  A    between atoms: _481  and  _482
REMARK  204  A    between atoms: _481  and  _484
REMARK  205  A    between atoms: _484  and  _485
REMARK  206  A    between atoms: _491  and  _493
REMARK  207  A    between atoms: _493  and  _494
REMARK  208  A    between atoms: _493  and  _496
REMARK  209  A    between atoms: _496  and  _497
REMARK  210  A    between atoms: _500  and  _502
REMARK  211  A    between atoms: _502  and  _503
REMARK  212  A    between atoms: _502  and  _505
REMARK  213  A    between atoms: _508  and  _510
REMARK  214  A    between atoms: _510  and  _511
REMARK  215  A    between atoms: _510  and  _513
REMARK  216  A    between atoms: _513  and  _514
REMARK  217  A    between atoms: _517  and  _519
REMARK  218  A    between atoms: _519  and  _520
REMARK  219  A    between atoms: _519  and  _522
REMARK  220  A    between atoms: _522  and  _523
REMARK  221  A    between atoms: _527  and  _528
REMARK  222  A    between atoms: _533  and  _535
REMARK  223  A    between atoms: _535  and  _536
REMARK  224  A    between atoms: _535  and  _538
REMARK  225  A    between atoms: _541  and  _543
REMARK  226  A    between atoms: _543  and  _544
REMARK  227  A    between atoms: _543  and  _546
REMARK  228  A    between atoms: _546  and  _547
REMARK  229  A    between atoms: _552  and  _554
REMARK  230  A    between atoms: _554  and  _555
REMARK  231  A    between atoms: _554  and  _557
REMARK  232  A    between atoms: _557  and  _558
REMARK  233  A    between atoms: _561  and  _563
REMARK  234  A    between atoms: _563  and  _564
REMARK  235  A    between atoms: _563  and  _566
REMARK  236  A    between atoms: _566  and  _567
REMARK  237  A    between atoms: _570  and  _572
REMARK  238  A    between atoms: _572  and  _573
REMARK  239  A    between atoms: _575  and  _577
REMARK  240  A    between atoms: _577  and  _578
REMARK  241  A    between atoms: _577  and  _580
REMARK  242  A    between atoms: _580  and  _581
REMARK  243  A    between atoms: _581  and  _582
REMARK  244  A    between atoms: _582  and  _583
REMARK  245  A    between atoms: _592  and  _594
REMARK  246  A    between atoms: _594  and  _595
REMARK  247  A    between atoms: _594  and  _597
REMARK  248  A    between atoms: _597  and  _598
REMARK                            x       y       z     vdW  Elec       q    Type
REMARK                         _______ _______ _______ _____ _____    ______ ____
ROOT
ATOM      1  CA  LEU A   1      16.138  13.353  -4.675  0.00  0.00    +0.133 C 
ENDROOT
BRANCH   1   2
ATOM      2  N   LEU A   1      16.984  14.256  -5.442  0.00  0.00    -0.239 NA
ATOM      3  H   LEU A   1      17.041  15.257  -5.166  0.00  0.00    +0.142 HD
ENDBRANCH   1   2
BRANCH   1   4
ATOM      4  C   LEU A   1      14.704  13.574  -5.126  0.00  0.00    +0.224 C 
ATOM      5  O   LEU A   1      14.317  14.697  -5.434  0.00  0.00    -0.287 OA
ENDBRANCH   1   4
BRANCH   1   6
ATOM      6  CB  LEU A   1      16.255  13.654  -3.183  0.00  0.00    +0.025 C 
BRANCH   6   7
ATOM      7  CG  LEU A   1      17.685  13.660  -2.642  0.00  0.00    +0.002 C 
ATOM      8  CD2 LEU A   1      17.667  13.980  -1.152  0.00  0.00    +0.000 C 
ATOM      9  CD1 LEU A   1      18.331  12.305  -2.898  0.00  0.00    +0.000 C 
ENDBRANCH   6   7
ENDBRANCH   1   6
TORSDOF 4
REMARK  Name = ../refined-set-2016/1d4h/1d4h_pocket.pdb
REMARK  248 active torsions:
REMARK  status: ('A' for Active; 'I' for Inactive)
REMARK    1  A    between atoms: _1  and  _3
REMARK    2  A    between atoms: _3  and  _4
REMARK    3  A    between atoms: _3  and  _6
REMARK    4  A    between atoms: _6  and  _7
REMARK    5  A    between atoms: _7  and  _8
REMARK    6  A    between atoms: _8  and  _9
REMARK    7  A    between atoms: _18  and  _20
REMARK    8  A    between atoms: _20  and  _21
REMARK    9  A    between atoms: _20  and  _23
REMARK   10  A    between atoms: _23  and  _24
REMARK   11  A    between atoms: _27  and  _29
REMARK   12  A    between atoms: _29  and  _30
REMARK   13  A    between atoms: _29  and  _32
REMARK   14  A    between atoms: _32  and  _33
REMARK   15  A    between atoms: _36  and  _38
REMARK   16  A    between atoms: _38  and  _39
REMARK   17  A    between atoms: _38  and  _41
REMARK   18  A    between atoms: _41  and  _42
REMARK   19  A    between atoms: _45  and  _47
REMARK   20  A    between atoms: _47  and  _48
REMARK   21  A    between atoms: _47  and  _50
REMARK   22  A    between atoms: _50  and  _51
REMARK   23  A    between atoms: _54  and  _56
REMARK   24  A    between atoms: _56  and  _57
REMARK   25  A    between atoms: _56  and  _59
REMARK   26  A    between atoms: _59  and  _60
REMARK   27  A    between atoms: _63  and  _65
REMARK   28  A    between atoms: _65  and  _66
REMARK   29  A    between atoms: _68  and  _70
REMARK   30  A    between atoms: _70  and  _71
REMARK   31  A    between atoms: _74  and  _76
REMARK   32  A    between atoms: _76  and  _77
REMARK   33  A    between atoms: _76  and  _79
REMARK   34  A    between atoms: _79  and  _80
REMARK   35  A    between atoms: _83  and  _85
REMARK   36  A    between atoms: _85  and  _86
REMARK   37  A    between atoms: _85  and  _88
REMARK   38  A    between atoms: _88  and  _89
REMARK   39  A    between atoms: _92  and  _94
REMARK   40  A    between atoms: _94  and  _95
REMARK   41  A    between atoms: _94  and  _97
REMARK   42  A    between atoms: _97  and  _98
REMARK   43  A    between atoms: _101  and  _103
REMARK   44  A    between atoms: _103  and  _104
REMARK   45  A    between atoms: _103  and  _106
REMARK   46  A    between atoms: _109  and  _111
REMARK   47  A    between atoms: _111  and  _112
REMARK   48  A    between atoms: _111  and  _114
REMARK   49  A    between atoms: _114  and  _115
REMARK   50  A    between atoms: _118  and  _120
REMARK   51  A    between atoms: _120  and  _121
REMARK   52  A    between atoms: _120  and  _123
REMARK   53  A    between atoms: _123  and  _124
REMARK   54  A    between atoms: _124  and  _125
REMARK   55  A    between atoms: _125  and  _126
REMARK   56  A    between atoms: _126  and  _127
REMARK   57  A    between atoms: _131  and  _133
REMARK   58  A    between atoms: _133  and  _134
REMARK   59  A    between atoms: _133  and  _136
REMARK   60  A    between atoms: _136  and  _137
REMARK   61  A    between atoms: _137  and  _138
REMARK   62  A    between atoms: _140  and  _142
REMARK   63  A    between atoms: _142  and  _143
REMARK   64  A    between atoms: _142  and  _145
REMARK   65  A    between atoms: _145  and  _146
REMARK   66  A    between atoms: _149  and  _151
REMARK   67  A    between atoms: _151  and  _152
REMARK   68  A    between atoms: _154  and  _156
REMARK   69  A    between atoms: _156  and  _157
REMARK   70  A    between atoms: _159  and  _161
REMARK   71  A    between atoms: _161  and  _162
REMARK   72  A    between atoms: _161  and  _164
REMARK   73  A    between atoms: _164  and  _165
REMARK   74  A    between atoms: _168  and  _170
REMARK   75  A    between atoms: _170  and  _171
REMARK   76  A    between atoms: _173  and  _175
REMARK   77  A    between atoms: _175  and  _176
REMARK   78  A    between atoms: _178  and  _180
REMARK   79  A    between atoms: _180  and  _181
REMARK   80  A    between atoms: _180  and  _183
REMARK   81  A    between atoms: _183  and  _184
REMARK   82  A    between atoms: _190  and  _192
REMARK   83  A    between atoms: _192  and  _193
REMARK   84  A    between atoms: _192  and  _195
REMARK   85  A    between atoms: _195  and  _196
REMARK   86  A    between atoms: _199  and  _201
REMARK   87  A    between atoms: _201  and  _202
REMARK   88  A    between atoms: _201  and  _204
REMARK   89  A    between atoms: _207  and  _209
REMARK   90  A    between atoms: _209  and  _210
REMARK   91  A    between atoms: _209  and  _212
REMARK   92  A    between atoms: _212  and  _213
REMARK   93  A    between atoms: _216  and  _218
REMARK   94  A    between atoms: _218  and  _219
REMARK   95  A    between atoms: _218  and  _221
REMARK   96  A    between atoms: _221  and  _222
REMARK   97  A    between atoms: _226  and  _227
REMARK   98  A    between atoms: _232  and  _234
REMARK   99  A    between atoms: _234  and  _235
REMARK  100  A    between atoms: _234  and  _237
REMARK  101  A    between atoms: _240  and  _242
REMARK  102  A    between atoms: _242  and  _243
REMARK  103  A    between atoms: _242  and  _245
REMARK  104  A    between atoms: _245  and  _246
REMARK  105  A    between atoms: _251  and  _253
REMARK  106  A    between atoms: _253  and  _254
REMARK  107  A    between atoms: _253  and  _256
REMARK  108  A    between atoms: _256  and  _257
REMARK  109  A    between atoms: _260  and  _262
REMARK  110  A    between atoms: _262  and  _263
REMARK  111  A    between atoms: _262  and  _265
REMARK  112  A    between atoms: _265  and  _266
REMARK  113  A    between atoms: _269  and  _271
REMARK  114  A    between atoms: _271  and  _272
REMARK  115  A    between atoms: _274  and  _276
REMARK  116  A    between atoms: _276  and  _277
REMARK  117  A    between atoms: _276  and  _279
REMARK  118  A    between atoms: _279  and  _280
REMARK  119  A    between atoms: _280  and  _281
REMARK  120  A    between atoms: _281  and  _282
REMARK  121  A    between atoms: _291  and  _293
REMARK  122  A    between atoms: _293  and  _294
REMARK  123  A    between atoms: _293  and  _296
REMARK  124  A    between atoms: _296  and  _297
REMARK  125  A    between atoms: _302  and  _304
REMARK  126  A    between atoms: _304  and  _305
REMARK  127  A    between atoms: _304  and  _307
REMARK  128  A    between atoms: _307  and  _308
REMARK  129  A    between atoms: _308  and  _309
REMARK  130  A    between atoms: _309  and  _310
REMARK  131  A    between atoms: _319  and  _321
REMARK  132  A    between atoms: _321  and  _322
REMARK  133  A    between atoms: _321  and  _324
REMARK  134  A    between atoms: _324  and  _325
REMARK  135  A    between atoms: _328  and  _330
REMARK  136  A    between atoms: _330  and  _331
REMARK  137  A    between atoms: _330  and  _333
REMARK  138  A    between atoms: _333  and  _334
REMARK  139  A    between atoms: _337  and  _339
REMARK  140  A    between atoms: _339  and  _340
REMARK  141  A    between atoms: _339  and  _342
REMARK  142  A    between atoms: _342  and  _343
REMARK  143  A    between atoms: _346  and  _348
REMARK  144  A    between atoms: _348  and  _349
REMARK  145  A    between atoms: _348  and  _351
REMARK  146  A    between atoms: _351  and  _352
REMARK  147  A    between atoms: _355  and  _357
REMARK  148  A    between atoms: _357  and  _358
REMARK  149  A    between atoms: _357  and  _360
REMARK  150  A    between atoms: _360  and  _361
REMARK  151  A    between atoms: _364  and  _366
REMARK  152  A    between atoms: _366  and  _367
REMARK  153  A    between atoms: _369  and  _371
REMARK  154  A    between atoms: _371  and  _372
REMARK  155  A    between atoms: _375  and  _377
REMARK  156  A    between atoms: _377  and  _378
REMARK  157  A    between atoms: _377  and  _380
REMARK  158  A    between atoms: _380  and  _381
REMARK  159  A    between atoms: _384  and  _386
REMARK  160  A    between atoms: _386  and  _387
REMARK  161  A    between atoms: _386  and  _389
REMARK  162  A    between atoms: _389  and  _390
REMARK  163  A    between atoms: _393  and  _395
REMARK  164  A    between atoms: _395  and  _396
REMARK  165  A    between atoms: _395  and  _398
REMARK  166  A    between atoms: _398  and  _399
REMARK  167  A    between atoms: _402  and  _404
REMARK  168  A    between atoms: _404  and  _405
REMARK  169  A    between atoms: _404  and  _407
REMARK  170  A    between atoms: _410  and  _412
REMARK  171  A    between atoms: _412  and  _413
REMARK  172  A    between atoms: _412  and  _415
REMARK  173  A    between atoms: _415  and  _416
REMARK  174  A    between atoms: _419  and  _421
REMARK  175  A    between atoms: _421  and  _422
REMARK  176  A    between atoms: _421  and  _424
REMARK  177  A    between atoms: _424  and  _425
REMARK  178  A    between atoms: _425  and  _426
REMARK  179  A    between atoms: _426  and  _427
REMARK  180  A    between atoms: _427  and  _428
REMARK  181  A    between atoms: _432  and  _434
REMARK  182  A    between atoms: _434  and  _435
REMARK  183  A    between atoms: _434  and  _437
REMARK  184  A    between atoms: _437  and  _438
REMARK  185  A    between atoms: _438  and  _439
REMARK  186  A    between atoms: _441  and  _443
REMARK  187  A    between atoms: _443  and  _444
REMARK  188  A    between atoms: _443  and  _446
REMARK  189  A    between atoms: _446  and  _447
REMARK  190  A    between atoms: _450  and  _452
REMARK  191  A    between atoms: _452  and  _453
REMARK  192  A    between atoms: _455  and  _457
REMARK  193  A    between atoms: _457  and  _458
REMARK  194  A    between atoms: _460  and  _462
REMARK  195  A    between atoms: _462  and  _463
REMARK  196  A    between atoms: _462  and  _465
REMARK  197  A    between atoms: _465  and  _466
REMARK  198  A    between atoms: _469  and  _471
REMARK  199  A    between atoms: _471  and  _472
REMARK  200  A    between atoms: _474  and  _476
REMARK  201  A    between atoms: _476  and  _477
REMARK  202  A    between atoms: _479  and  _481
REMARK  203  A    between atoms: _481  and  _482
REMARK  204  A    between atoms: _481  and  _484
REMARK  205  A    between atoms: _484  and  _485
REMARK  206  A    between atoms: _491  and  _493
REMARK  207  A    between atoms: _493  and  _494
REMARK  208  A    between atoms: _493  and  _496
REMARK  209  A    between atoms: _496  and  _497
REMARK  210  A    between atoms: _500  and  _502
REMARK  211  A    between atoms: _502  and  _503
REMARK  212  A    between atoms: _502  and  _505
REMARK  213  A    between atoms: _508  and  _510
REMARK  214  A    between atoms: _510  and  _511
REMARK  215  A    between atoms: _510  and  _513
REMARK  216  A    between atoms: _513  and  _514
REMARK  217  A    between atoms: _517  and  _519
REMARK  218  A    between atoms: _519  and  _520
REMARK  219  A    between atoms: _519  and  _522
REMARK  220  A    between atoms: _522  and  _523
REMARK  221  A    between atoms: _527  and  _528
REMARK  222  A    between atoms: _533  and  _535
REMARK  223  A    between atoms: _535  and  _536
REMARK  224  A    between atoms: _535  and  _538
REMARK  225  A    between atoms: _541  and  _543
REMARK  226  A    between atoms: _543  and  _544
REMARK  227  A    between atoms: _543  and  _546
REMARK  228  A    between atoms: _546  and  _547
REMARK  229  A    between atoms: _552  and  _554
REMARK  230  A    between atoms: _554  and  _555
REMARK  231  A    between atoms: _554  and  _557
REMARK  232  A    between atoms: _557  and  _558
REMARK  233  A    between atoms: _561  and  _563
REMARK  234  A    between atoms: _563  and  _564
REMARK  235  A    between atoms: _563  and  _566
REMARK  236  A    between atoms: _566  and  _567
REMARK  237  A    between atoms: _570  and  _572
REMARK  238  A    between atoms: _572  and  _573
REMARK  239  A    between atoms: _575  and  _577
REMARK  240  A    between atoms: _577  and  _578
REMARK  241  A    between atoms: _577  and  _580
REMARK  242  A    between atoms: _580  and  _581
REMARK  243  A    between atoms: _581  and  _582
REMARK  244  A    between atoms: _582  and  _583
REMARK  245  A    between atoms: _592  and  _594
REMARK  246  A    between atoms: _594  and  _595
REMARK  247  A    between atoms: _594  and  _597
REMARK  248  A    between atoms: _597  and  _598
REMARK                            x       y       z     vdW  Elec       q    Type
REMARK                         _______ _______ _______ _____ _____    ______ ____
ROOT
ATOM      1  C   ILE A   5      15.065  22.233  -3.966  0.00  0.00    +0.241 C 
ATOM      2  N   ILE A   6      15.746  23.350  -4.202  0.00  0.00    -0.297 N 
ATOM      3  H   ILE A   6      15.306  24.270  -4.000  0.00  0.00    +0.150 HD
ATOM      4  O   ILE A   5      15.499  21.113  -4.221  0.00  0.00    -0.273 OA
ENDROOT
BRANCH   2   5
ATOM      5  CA  ILE A   6      17.095  23.305  -4.738  0.00  0.00    +0.149 C 
BRANCH   5   6
ATOM      6  C   ILE A   6      17.973  23.510  -3.512  0.00  0.00    +0.241 C 
ATOM      7  O   ILE A   6      17.975  24.591  -2.920  0.00  0.00    -0.273 OA
ATOM      8  N   GLY A   7      18.691  22.459  -3.125  0.00  0.00    -0.295 N 
ATOM      9  H   GLY A   7      18.642  21.576  -3.672  0.00  0.00    +0.150 HD
BRANCH   8  10
ATOM     10  CA  GLY A   7      19.543  22.526  -1.950  0.00  0.00    +0.176 C 
BRANCH  10  11
ATOM     11  C   GLY A   7      20.983  22.929  -2.195  0.00  0.00    +0.243 C 
ATOM     12  N   ARG A   8      21.763  22.946  -1.123  0.00  0.00    -0.297 N 
ATOM     13  H   ARG A   8      21.373  22.661  -0.202  0.00  0.00    +0.150 HD
ATOM     14  O   GLY A   7      21.397  23.215  -3.321  0.00  0.00    -0.273 OA
BRANCH  12  15
ATOM     15  CA  ARG A   8      23.152  23.355  -1.213  0.00  0.00    +0.149 C 
BRANCH  15  16
ATOM     16  C   ARG A   8      23.994  22.583  -2.220  0.00  0.00    +0.241 C 
ATOM     17  N   ASN A   9      23.692  21.307  -2.444  0.00  0.00    -0.298 N 
ATOM     18  H   ASN A   9      22.888  20.862  -1.957  0.00  0.00    +0.150 HD
ATOM     19  O   ARG A   8      24.904  23.152  -2.812  0.00  0.00    -0.273 OA
BRANCH  17  20
ATOM     20  CA  ASN A   9      24.505  20.540  -3.384  0.00  0.00    +0.146 C 
BRANCH  20  21
ATOM     21  C   ASN A   9      24.505  21.173  -4.776  0.00  0.00    +0.227 C 
ATOM     22  O   ASN A   9      25.514  21.123  -5.482  0.00  0.00    -0.286 OA
ENDBRANCH  20  21
BRANCH  20  23
ATOM     23  CB  ASN A   9      24.050  19.071  -3.444  0.00  0.00    +0.112 C 
BRANCH  23  24
ATOM     24  CG  ASN A   9      22.735  18.889  -4.168  0.00  0.00    +0.222 C 
ATOM     25  OD1 ASN A   9      21.730  19.513  -3.824  0.00  0.00    -0.275 OA
ATOM     26  ND2 ASN A   9      22.733  18.026  -5.183  0.00  0.00    -0.329 N 
ATOM     27 HD21 ASN A   9      23.606  17.521  -5.438  0.00  0.00    +0.145 HD
ATOM     28 HD22 ASN A   9      21.859  17.857  -5.720  0.00  0.00    +0.145 HD
ENDBRANCH  23  24
ENDBRANCH  20  23
ENDBRANCH  17  20
ENDBRANCH  15  16
BRANCH  15  29
ATOM     29  CB  ARG A   8      23.807  23.299   0.175  0.00  0.00    +0.033 C 
BRANCH  29  30
ATOM     30  CG  ARG A   8      23.261  24.349   1.143  0.00  0.00    +0.045 C 
BRANCH  30  31
ATOM     31  CD  ARG A   8      24.081  24.440   2.443  0.00  0.00    +0.174 C 
BRANCH  31  32
ATOM     32  NE  ARG A   8      24.084  23.178   3.187  0.00  0.00    -0.265 N 
ATOM     33  HE  ARG A   8      23.264  22.968   3.791  0.00  0.00    +0.259 HD
ATOM     34  CZ  ARG A   8      25.068  22.282   3.140  0.00  0.00    +0.342 C 
ATOM     35  NH2 ARG A   8      24.964  21.149   3.818  0.00  0.00    -0.292 N 
ATOM     36 HH21 ARG A   8      24.114  20.959   4.387  0.00  0.00    +0.255 HD
ATOM     37 HH22 ARG A   8      25.732  20.449   3.782  0.00  0.00    +0.255 HD
ATOM     38  NH1 ARG A   8      26.145  22.504   2.395  0.00  0.00    -0.292 N 
ATOM     39 HH11 ARG A   8      26.910  21.800   2.363  0.00  0.00    +0.255 HD
ATOM     40 HH12 ARG A   8      26.224  23.382   1.843  0.00  0.00    +0.255 HD
ENDBRANCH  31  32
ENDBRANCH  30  31
ENDBRANCH  29  30
ENDBRANCH  15  29
ENDBRANCH  12  15
ENDBRANCH  10  11
ENDBRANCH   8  10
ENDBRANCH   5   6
BRANCH   5  41
ATOM     41  CB  ILE A   6      17.356  24.436  -5.743  0.00  0.00    +0.027 C 
ATOM     42  CG2 ILE A   6      18.789  24.338  -6.265  0.00  0.00    +0.002 C 
BRANCH  41  43
ATOM     43  CG1 ILE A   6      16.343  24.348  -6.894  0.00  0.00    +0.002 C 
ATOM     44  CD1 ILE A   6      16.324  22.994  -7.605  0.00  0.00    +0.000 C 
ENDBRANCH  41  43
ENDBRANCH   5  41
ENDBRANCH   2   5
BRANCH   1  45
ATOM     45  CA  ILE A   5      13.690  22.405  -3.335  0.00  0.00    +0.149 C 
BRANCH  45  47
ATOM     46  C   ASN A   4      11.577  22.393  -4.548  0.00  0.00    +0.241 C 
ATOM     47  N   ILE A   5      12.627  21.735  -4.070  0.00  0.00    -0.297 N 
ATOM     48  H   ILE A   5      12.692  20.709  -4.226  0.00  0.00    +0.150 HD
ATOM     49  O   ASN A   4      11.439  23.607  -4.446  0.00  0.00    -0.273 OA
BRANCH  46  50
ATOM     50  CA  ASN A   4      10.523  21.553  -5.245  0.00  0.00    +0.158 C 
BRANCH  50  53
ATOM     51  C   VAL A   3       8.940  21.507  -3.414  0.00  0.00    +0.241 C 
ATOM     52  O   VAL A   3       9.696  20.818  -2.728  0.00  0.00    -0.273 OA
ATOM     53  N   ASN A   4       9.240  21.899  -4.649  0.00  0.00    -0.297 N 
ATOM     54  H   ASN A   4       8.552  22.457  -5.194  0.00  0.00    +0.150 HD
BRANCH  51  55
ATOM     55  CA  VAL A   3       7.591  21.952  -2.865  0.00  0.00    +0.149 C 
BRANCH  55  57
ATOM     56  C   PRO A   2       5.945  20.844  -1.439  0.00  0.00    +0.241 C 
ATOM     57  N   VAL A   3       7.214  21.063  -1.771  0.00  0.00    -0.297 N 
ATOM     58  H   VAL A   3       7.964  20.584  -1.232  0.00  0.00    +0.150 HD
ATOM     59  O   PRO A   2       4.998  21.370  -2.022  0.00  0.00    -0.273 OA
BRANCH  56  65
ATOM     60  C   THR A   1       7.068  17.960  -0.944  0.00  0.00    +0.244 C 
ATOM     61  N   PRO A   2       6.794  18.928  -0.057  0.00  0.00    -0.272 N 
ATOM     62  CD  PRO A   2       7.327  19.045   1.311  0.00  0.00    +0.094 C 
ATOM     63  CG  PRO A   2       6.159  19.648   2.042  0.00  0.00    +0.024 C 
ATOM     64  CB  PRO A   2       5.647  20.642   1.061  0.00  0.00    +0.031 C 
ATOM     65  CA  PRO A   2       5.709  19.895  -0.270  0.00  0.00    +0.152 C 
ATOM     66  O   THR A   1       6.423  17.825  -1.976  0.00  0.00    -0.273 OA
BRANCH  60  67
ATOM     67  CA  THR A   1       8.215  17.006  -0.620  0.00  0.00    +0.172 C 
BRANCH  67  68
ATOM     68  CB  THR A   1       9.512  17.544  -1.252  0.00  0.00    +0.135 C 
ATOM     69  CG2 THR A   1       9.381  17.605  -2.766  0.00  0.00    +0.034 C 
BRANCH  68  70
ATOM     70  OG1 THR A   1       9.779  18.856  -0.745  0.00  0.00    -0.383 OA
ATOM     71  HG1 THR A   1       9.026  19.456  -0.973  0.00  0.00    +0.210 HD
ENDBRANCH  68  70
ENDBRANCH  67  68
BRANCH  67  72
ATOM     72  N   THR A   1       7.862  15.703  -1.161  0.00  0.00    -0.236 NA
ATOM     73  H   THR A   1       8.215  15.423  -2.098  0.00  0.00    +0.142 HD
ENDBRANCH  67  72
ENDBRANCH  60  67
ENDBRANCH  56  65
ENDBRANCH  55  57
BRANCH  55  74
ATOM     74  CB  VAL A   3       7.745  23.422  -2.390  0.00  0.00    +0.027 C 
ATOM     75  CG2 VAL A   3       8.846  23.515  -1.347  0.00  0.00    +0.002 C 
ATOM     76  CG1 VAL A   3       6.432  23.943  -1.827  0.00  0.00    +0.002 C 
ENDBRANCH  55  74
ENDBRANCH  51  55
ENDBRANCH  50  53
BRANCH  50  77
ATOM     77  CB  ASN A   4      10.523  21.848  -6.745  0.00  0.00    +0.114 C 
BRANCH  77  78
ATOM     78  CG  ASN A   4       9.577  20.951  -7.506  0.00  0.00    +0.222 C 
ATOM     79  OD1 ASN A   4       9.533  19.748  -7.268  0.00  0.00    -0.275 OA
ATOM     80  ND2 ASN A   4       8.820  21.528  -8.438  0.00  0.00    -0.329 N 
ATOM     81 HD21 ASN A   4       8.891  22.552  -8.605  0.00  0.00    +0.145 HD
ATOM     82 HD22 ASN A   4       8.158  20.954  -8.998  0.00  0.00    +0.145 HD
ENDBRANCH  77  78
ENDBRANCH  50  77
ENDBRANCH  46  50
ENDBRANCH  45  47
BRANCH  45  83
ATOM     83  CB  ILE A   5      13.780  21.842  -1.896  0.00  0.00    +0.027 C 
ATOM     84  CG2 ILE A   5      14.993  22.415  -1.171  0.00  0.00    +0.002 C 
BRANCH  83  85
ATOM     85  CG1 ILE A   5      12.490  22.150  -1.135  0.00  0.00    +0.002 C 
ATOM     86  CD1 ILE A   5      12.384  21.398   0.172  0.00  0.00    +0.000 C 
ENDBRANCH  83  85
ENDBRANCH  45  83
ENDBRANCH   1  45
TORSDOF 32
REMARK  Name = ../refined-set-2016/1d4h/1d4h_pocket.pdb
REMARK  248 active torsions:
REMARK  status: ('A' for Active; 'I' for Inactive)
REMARK    1  A    between atoms: _1  and  _3
REMARK    2  A    between atoms: _3  and  _4
REMARK    3  A    between atoms: _3  and  _6
REMARK    4  A    between atoms: _6  and  _7
REMARK    5  A    between atoms: _7  and  _8
REMARK    6  A    between atoms: _8  and  _9
REMARK    7  A    between atoms: _18  and  _20
REMARK    8  A    between atoms: _20  and  _21
REMARK    9  A    between atoms: _20  and  _23
REMARK   10  A    between atoms: _23  and  _24
REMARK   11  A    between atoms: _27  and  _29
REMARK   12  A    between atoms: _29  and  _30
REMARK   13  A    between atoms: _29  and  _32
REMARK   14  A    between atoms: _32  and  _33
REMARK   15  A    between atoms: _36  and  _38
REMARK   16  A    between atoms: _38  and  _39
REMARK   17  A    between atoms: _38  and  _41
REMARK   18  A    between atoms: _41  and  _42
REMARK   19  A    between atoms: _45  and  _47
REMARK   20  A    between atoms: _47  and  _48
REMARK   21  A    between atoms: _47  and  _50
REMARK   22  A    between atoms: _50  and  _51
REMARK   23  A    between atoms: _54  and  _56
REMARK   24  A    between atoms: _56  and  _57
REMARK   25  A    between atoms: _56  and  _59
REMARK   26  A    between atoms: _59  and  _60
REMARK   27  A    between atoms: _63  and  _65
REMARK   28  A    between atoms: _65  and  _66
REMARK   29  A    between atoms: _68  and  _70
REMARK   30  A    between atoms: _70  and  _71
REMARK   31  A    between atoms: _74  and  _76
REMARK   32  A    between atoms: _76  and  _77
REMARK   33  A    between atoms: _76  and  _79
REMARK   34  A    between atoms: _79  and  _80
REMARK   35  A    between atoms: _83  and  _85
REMARK   36  A    between atoms: _85  and  _86
REMARK   37  A    between atoms: _85  and  _88
REMARK   38  A    between atoms: _88  and  _89
REMARK   39  A    between atoms: _92  and  _94
REMARK   40  A    between atoms: _94  and  _95
REMARK   41  A    between atoms: _94  and  _97
REMARK   42  A    between atoms: _97  and  _98
REMARK   43  A    between atoms: _101  and  _103
REMARK   44  A    between atoms: _103  and  _104
REMARK   45  A    between atoms: _103  and  _106
REMARK   46  A    between atoms: _109  and  _111
REMARK   47  A    between atoms: _111  and  _112
REMARK   48  A    between atoms: _111  and  _114
REMARK   49  A    between atoms: _114  and  _115
REMARK   50  A    between atoms: _118  and  _120
REMARK   51  A    between atoms: _120  and  _121
REMARK   52  A    between atoms: _120  and  _123
REMARK   53  A    between atoms: _123  and  _124
REMARK   54  A    between atoms: _124  and  _125
REMARK   55  A    between atoms: _125  and  _126
REMARK   56  A    between atoms: _126  and  _127
REMARK   57  A    between atoms: _131  and  _133
REMARK   58  A    between atoms: _133  and  _134
REMARK   59  A    between atoms: _133  and  _136
REMARK   60  A    between atoms: _136  and  _137
REMARK   61  A    between atoms: _137  and  _138
REMARK   62  A    between atoms: _140  and  _142
REMARK   63  A    between atoms: _142  and  _143
REMARK   64  A    between atoms: _142  and  _145
REMARK   65  A    between atoms: _145  and  _146
REMARK   66  A    between atoms: _149  and  _151
REMARK   67  A    between atoms: _151  and  _152
REMARK   68  A    between atoms: _154  and  _156
REMARK   69  A    between atoms: _156  and  _157
REMARK   70  A    between atoms: _159  and  _161
REMARK   71  A    between atoms: _161  and  _162
REMARK   72  A    between atoms: _161  and  _164
REMARK   73  A    between atoms: _164  and  _165
REMARK   74  A    between atoms: _168  and  _170
REMARK   75  A    between atoms: _170  and  _171
REMARK   76  A    between atoms: _173  and  _175
REMARK   77  A    between atoms: _175  and  _176
REMARK   78  A    between atoms: _178  and  _180
REMARK   79  A    between atoms: _180  and  _181
REMARK   80  A    between atoms: _180  and  _183
REMARK   81  A    between atoms: _183  and  _184
REMARK   82  A    between atoms: _190  and  _192
REMARK   83  A    between atoms: _192  and  _193
REMARK   84  A    between atoms: _192  and  _195
REMARK   85  A    between atoms: _195  and  _196
REMARK   86  A    between atoms: _199  and  _201
REMARK   87  A    between atoms: _201  and  _202
REMARK   88  A    between atoms: _201  and  _204
REMARK   89  A    between atoms: _207  and  _209
REMARK   90  A    between atoms: _209  and  _210
REMARK   91  A    between atoms: _209  and  _212
REMARK   92  A    between atoms: _212  and  _213
REMARK   93  A    between atoms: _216  and  _218
REMARK   94  A    between atoms: _218  and  _219
REMARK   95  A    between atoms: _218  and  _221
REMARK   96  A    between atoms: _221  and  _222
REMARK   97  A    between atoms: _226  and  _227
REMARK   98  A    between atoms: _232  and  _234
REMARK   99  A    between atoms: _234  and  _235
REMARK  100  A    between atoms: _234  and  _237
REMARK  101  A    between atoms: _240  and  _242
REMARK  102  A    between atoms: _242  and  _243
REMARK  103  A    between atoms: _242  and  _245
REMARK  104  A    between atoms: _245  and  _246
REMARK  105  A    between atoms: _251  and  _253
REMARK  106  A    between atoms: _253  and  _254
REMARK  107  A    between atoms: _253  and  _256
REMARK  108  A    between atoms: _256  and  _257
REMARK  109  A    between atoms: _260  and  _262
REMARK  110  A    between atoms: _262  and  _263
REMARK  111  A    between atoms: _262  and  _265
REMARK  112  A    between atoms: _265  and  _266
REMARK  113  A    between atoms: _269  and  _271
REMARK  114  A    between atoms: _271  and  _272
REMARK  115  A    between atoms: _274  and  _276
REMARK  116  A    between atoms: _276  and  _277
REMARK  117  A    between atoms: _276  and  _279
REMARK  118  A    between atoms: _279  and  _280
REMARK  119  A    between atoms: _280  and  _281
REMARK  120  A    between atoms: _281  and  _282
REMARK  121  A    between atoms: _291  and  _293
REMARK  122  A    between atoms: _293  and  _294
REMARK  123  A    between atoms: _293  and  _296
REMARK  124  A    between atoms: _296  and  _297
REMARK  125  A    between atoms: _302  and  _304
REMARK  126  A    between atoms: _304  and  _305
REMARK  127  A    between atoms: _304  and  _307
REMARK  128  A    between atoms: _307  and  _308
REMARK  129  A    between atoms: _308  and  _309
REMARK  130  A    between atoms: _309  and  _310
REMARK  131  A    between atoms: _319  and  _321
REMARK  132  A    between atoms: _321  and  _322
REMARK  133  A    between atoms: _321  and  _324
REMARK  134  A    between atoms: _324  and  _325
REMARK  135  A    between atoms: _328  and  _330
REMARK  136  A    between atoms: _330  and  _331
REMARK  137  A    between atoms: _330  and  _333
REMARK  138  A    between atoms: _333  and  _334
REMARK  139  A    between atoms: _337  and  _339
REMARK  140  A    between atoms: _339  and  _340
REMARK  141  A    between atoms: _339  and  _342
REMARK  142  A    between atoms: _342  and  _343
REMARK  143  A    between atoms: _346  and  _348
REMARK  144  A    between atoms: _348  and  _349
REMARK  145  A    between atoms: _348  and  _351
REMARK  146  A    between atoms: _351  and  _352
REMARK  147  A    between atoms: _355  and  _357
REMARK  148  A    between atoms: _357  and  _358
REMARK  149  A    between atoms: _357  and  _360
REMARK  150  A    between atoms: _360  and  _361
REMARK  151  A    between atoms: _364  and  _366
REMARK  152  A    between atoms: _366  and  _367
REMARK  153  A    between atoms: _369  and  _371
REMARK  154  A    between atoms: _371  and  _372
REMARK  155  A    between atoms: _375  and  _377
REMARK  156  A    between atoms: _377  and  _378
REMARK  157  A    between atoms: _377  and  _380
REMARK  158  A    between atoms: _380  and  _381
REMARK  159  A    between atoms: _384  and  _386
REMARK  160  A    between atoms: _386  and  _387
REMARK  161  A    between atoms: _386  and  _389
REMARK  162  A    between atoms: _389  and  _390
REMARK  163  A    between atoms: _393  and  _395
REMARK  164  A    between atoms: _395  and  _396
REMARK  165  A    between atoms: _395  and  _398
REMARK  166  A    between atoms: _398  and  _399
REMARK  167  A    between atoms: _402  and  _404
REMARK  168  A    between atoms: _404  and  _405
REMARK  169  A    between atoms: _404  and  _407
REMARK  170  A    between atoms: _410  and  _412
REMARK  171  A    between atoms: _412  and  _413
REMARK  172  A    between atoms: _412  and  _415
REMARK  173  A    between atoms: _415  and  _416
REMARK  174  A    between atoms: _419  and  _421
REMARK  175  A    between atoms: _421  and  _422
REMARK  176  A    between atoms: _421  and  _424
REMARK  177  A    between atoms: _424  and  _425
REMARK  178  A    between atoms: _425  and  _426
REMARK  179  A    between atoms: _426  and  _427
REMARK  180  A    between atoms: _427  and  _428
REMARK  181  A    between atoms: _432  and  _434
REMARK  182  A    between atoms: _434  and  _435
REMARK  183  A    between atoms: _434  and  _437
REMARK  184  A    between atoms: _437  and  _438
REMARK  185  A    between atoms: _438  and  _439
REMARK  186  A    between atoms: _441  and  _443
REMARK  187  A    between atoms: _443  and  _444
REMARK  188  A    between atoms: _443  and  _446
REMARK  189  A    between atoms: _446  and  _447
REMARK  190  A    between atoms: _450  and  _452
REMARK  191  A    between atoms: _452  and  _453
REMARK  192  A    between atoms: _455  and  _457
REMARK  193  A    between atoms: _457  and  _458
REMARK  194  A    between atoms: _460  and  _462
REMARK  195  A    between atoms: _462  and  _463
REMARK  196  A    between atoms: _462  and  _465
REMARK  197  A    between atoms: _465  and  _466
REMARK  198  A    between atoms: _469  and  _471
REMARK  199  A    between atoms: _471  and  _472
REMARK  200  A    between atoms: _474  and  _476
REMARK  201  A    between atoms: _476  and  _477
REMARK  202  A    between atoms: _479  and  _481
REMARK  203  A    between atoms: _481  and  _482
REMARK  204  A    between atoms: _481  and  _484
REMARK  205  A    between atoms: _484  and  _485
REMARK  206  A    between atoms: _491  and  _493
REMARK  207  A    between atoms: _493  and  _494
REMARK  208  A    between atoms: _493  and  _496
REMARK  209  A    between atoms: _496  and  _497
REMARK  210  A    between atoms: _500  and  _502
REMARK  211  A    between atoms: _502  and  _503
REMARK  212  A    between atoms: _502  and  _505
REMARK  213  A    between atoms: _508  and  _510
REMARK  214  A    between atoms: _510  and  _511
REMARK  215  A    between atoms: _510  and  _513
REMARK  216  A    between atoms: _513  and  _514
REMARK  217  A    between atoms: _517  and  _519
REMARK  218  A    between atoms: _519  and  _520
REMARK  219  A    between atoms: _519  and  _522
REMARK  220  A    between atoms: _522  and  _523
REMARK  221  A    between atoms: _527  and  _528
REMARK  222  A    between atoms: _533  and  _535
REMARK  223  A    between atoms: _535  and  _536
REMARK  224  A    between atoms: _535  and  _538
REMARK  225  A    between atoms: _541  and  _543
REMARK  226  A    between atoms: _543  and  _544
REMARK  227  A    between atoms: _543  and  _546
REMARK  228  A    between atoms: _546  and  _547
REMARK  229  A    between atoms: _552  and  _554
REMARK  230  A    between atoms: _554  and  _555
REMARK  231  A    between atoms: _554  and  _557
REMARK  232  A    between atoms: _557  and  _558
REMARK  233  A    between atoms: _561  and  _563
REMARK  234  A    between atoms: _563  and  _564
REMARK  235  A    between atoms: _563  and  _566
REMARK  236  A    between atoms: _566  and  _567
REMARK  237  A    between atoms: _570  and  _572
REMARK  238  A    between atoms: _572  and  _573
REMARK  239  A    between atoms: _575  and  _577
REMARK  240  A    between atoms: _577  and  _578
REMARK  241  A    between atoms: _577  and  _580
REMARK  242  A    between atoms: _580  and  _581
REMARK  243  A    between atoms: _581  and  _582
REMARK  244  A    between atoms: _582  and  _583
REMARK  245  A    between atoms: _592  and  _594
REMARK  246  A    between atoms: _594  and  _595
REMARK  247  A    between atoms: _594  and  _597
REMARK  248  A    between atoms: _597  and  _598
REMARK                            x       y       z     vdW  Elec       q    Type
REMARK                         _______ _______ _______ _____ _____    ______ ____
ROOT
ATOM      1  O   HOH     1      11.015  30.660   1.697  0.00  0.00    +0.000 OA
ENDROOT
TORSDOF 0
REMARK  Name = ../refined-set-2016/1d4h/1d4h_pocket.pdb
REMARK  248 active torsions:
REMARK  status: ('A' for Active; 'I' for Inactive)
REMARK    1  A    between atoms: _1  and  _3
REMARK    2  A    between atoms: _3  and  _4
REMARK    3  A    between atoms: _3  and  _6
REMARK    4  A    between atoms: _6  and  _7
REMARK    5  A    between atoms: _7  and  _8
REMARK    6  A    between atoms: _8  and  _9
REMARK    7  A    between atoms: _18  and  _20
REMARK    8  A    between atoms: _20  and  _21
REMARK    9  A    between atoms: _20  and  _23
REMARK   10  A    between atoms: _23  and  _24
REMARK   11  A    between atoms: _27  and  _29
REMARK   12  A    between atoms: _29  and  _30
REMARK   13  A    between atoms: _29  and  _32
REMARK   14  A    between atoms: _32  and  _33
REMARK   15  A    between atoms: _36  and  _38
REMARK   16  A    between atoms: _38  and  _39
REMARK   17  A    between atoms: _38  and  _41
REMARK   18  A    between atoms: _41  and  _42
REMARK   19  A    between atoms: _45  and  _47
REMARK   20  A    between atoms: _47  and  _48
REMARK   21  A    between atoms: _47  and  _50
REMARK   22  A    between atoms: _50  and  _51
REMARK   23  A    between atoms: _54  and  _56
REMARK   24  A    between atoms: _56  and  _57
REMARK   25  A    between atoms: _56  and  _59
REMARK   26  A    between atoms: _59  and  _60
REMARK   27  A    between atoms: _63  and  _65
REMARK   28  A    between atoms: _65  and  _66
REMARK   29  A    between atoms: _68  and  _70
REMARK   30  A    between atoms: _70  and  _71
REMARK   31  A    between atoms: _74  and  _76
REMARK   32  A    between atoms: _76  and  _77
REMARK   33  A    between atoms: _76  and  _79
REMARK   34  A    between atoms: _79  and  _80
REMARK   35  A    between atoms: _83  and  _85
REMARK   36  A    between atoms: _85  and  _86
REMARK   37  A    between atoms: _85  and  _88
REMARK   38  A    between atoms: _88  and  _89
REMARK   39  A    between atoms: _92  and  _94
REMARK   40  A    between atoms: _94  and  _95
REMARK   41  A    between atoms: _94  and  _97
REMARK   42  A    between atoms: _97  and  _98
REMARK   43  A    between atoms: _101  and  _103
REMARK   44  A    between atoms: _103  and  _104
REMARK   45  A    between atoms: _103  and  _106
REMARK   46  A    between atoms: _109  and  _111
REMARK   47  A    between atoms: _111  and  _112
REMARK   48  A    between atoms: _111  and  _114
REMARK   49  A    between atoms: _114  and  _115
REMARK   50  A    between atoms: _118  and  _120
REMARK   51  A    between atoms: _120  and  _121
REMARK   52  A    between atoms: _120  and  _123
REMARK   53  A    between atoms: _123  and  _124
REMARK   54  A    between atoms: _124  and  _125
REMARK   55  A    between atoms: _125  and  _126
REMARK   56  A    between atoms: _126  and  _127
REMARK   57  A    between atoms: _131  and  _133
REMARK   58  A    between atoms: _133  and  _134
REMARK   59  A    between atoms: _133  and  _136
REMARK   60  A    between atoms: _136  and  _137
REMARK   61  A    between atoms: _137  and  _138
REMARK   62  A    between atoms: _140  and  _142
REMARK   63  A    between atoms: _142  and  _143
REMARK   64  A    between atoms: _142  and  _145
REMARK   65  A    between atoms: _145  and  _146
REMARK   66  A    between atoms: _149  and  _151
REMARK   67  A    between atoms: _151  and  _152
REMARK   68  A    between atoms: _154  and  _156
REMARK   69  A    between atoms: _156  and  _157
REMARK   70  A    between atoms: _159  and  _161
REMARK   71  A    between atoms: _161  and  _162
REMARK   72  A    between atoms: _161  and  _164
REMARK   73  A    between atoms: _164  and  _165
REMARK   74  A    between atoms: _168  and  _170
REMARK   75  A    between atoms: _170  and  _171
REMARK   76  A    between atoms: _173  and  _175
REMARK   77  A    between atoms: _175  and  _176
REMARK   78  A    between atoms: _178  and  _180
REMARK   79  A    between atoms: _180  and  _181
REMARK   80  A    between atoms: _180  and  _183
REMARK   81  A    between atoms: _183  and  _184
REMARK   82  A    between atoms: _190  and  _192
REMARK   83  A    between atoms: _192  and  _193
REMARK   84  A    between atoms: _192  and  _195
REMARK   85  A    between atoms: _195  and  _196
REMARK   86  A    between atoms: _199  and  _201
REMARK   87  A    between atoms: _201  and  _202
REMARK   88  A    between atoms: _201  and  _204
REMARK   89  A    between atoms: _207  and  _209
REMARK   90  A    between atoms: _209  and  _210
REMARK   91  A    between atoms: _209  and  _212
REMARK   92  A    between atoms: _212  and  _213
REMARK   93  A    between atoms: _216  and  _218
REMARK   94  A    between atoms: _218  and  _219
REMARK   95  A    between atoms: _218  and  _221
REMARK   96  A    between atoms: _221  and  _222
REMARK   97  A    between atoms: _226  and  _227
REMARK   98  A    between atoms: _232  and  _234
REMARK   99  A    between atoms: _234  and  _235
REMARK  100  A    between atoms: _234  and  _237
REMARK  101  A    between atoms: _240  and  _242
REMARK  102  A    between atoms: _242  and  _243
REMARK  103  A    between atoms: _242  and  _245
REMARK  104  A    between atoms: _245  and  _246
REMARK  105  A    between atoms: _251  and  _253
REMARK  106  A    between atoms: _253  and  _254
REMARK  107  A    between atoms: _253  and  _256
REMARK  108  A    between atoms: _256  and  _257
REMARK  109  A    between atoms: _260  and  _262
REMARK  110  A    between atoms: _262  and  _263
REMARK  111  A    between atoms: _262  and  _265
REMARK  112  A    between atoms: _265  and  _266
REMARK  113  A    between atoms: _269  and  _271
REMARK  114  A    between atoms: _271  and  _272
REMARK  115  A    between atoms: _274  and  _276
REMARK  116  A    between atoms: _276  and  _277
REMARK  117  A    between atoms: _276  and  _279
REMARK  118  A    between atoms: _279  and  _280
REMARK  119  A    between atoms: _280  and  _281
REMARK  120  A    between atoms: _281  and  _282
REMARK  121  A    between atoms: _291  and  _293
REMARK  122  A    between atoms: _293  and  _294
REMARK  123  A    between atoms: _293  and  _296
REMARK  124  A    between atoms: _296  and  _297
REMARK  125  A    between atoms: _302  and  _304
REMARK  126  A    between atoms: _304  and  _305
REMARK  127  A    between atoms: _304  and  _307
REMARK  128  A    between atoms: _307  and  _308
REMARK  129  A    between atoms: _308  and  _309
REMARK  130  A    between atoms: _309  and  _310
REMARK  131  A    between atoms: _319  and  _321
REMARK  132  A    between atoms: _321  and  _322
REMARK  133  A    between atoms: _321  and  _324
REMARK  134  A    between atoms: _324  and  _325
REMARK  135  A    between atoms: _328  and  _330
REMARK  136  A    between atoms: _330  and  _331
REMARK  137  A    between atoms: _330  and  _333
REMARK  138  A    between atoms: _333  and  _334
REMARK  139  A    between atoms: _337  and  _339
REMARK  140  A    between atoms: _339  and  _340
REMARK  141  A    between atoms: _339  and  _342
REMARK  142  A    between atoms: _342  and  _343
REMARK  143  A    between atoms: _346  and  _348
REMARK  144  A    between atoms: _348  and  _349
REMARK  145  A    between atoms: _348  and  _351
REMARK  146  A    between atoms: _351  and  _352
REMARK  147  A    between atoms: _355  and  _357
REMARK  148  A    between atoms: _357  and  _358
REMARK  149  A    between atoms: _357  and  _360
REMARK  150  A    between atoms: _360  and  _361
REMARK  151  A    between atoms: _364  and  _366
REMARK  152  A    between atoms: _366  and  _367
REMARK  153  A    between atoms: _369  and  _371
REMARK  154  A    between atoms: _371  and  _372
REMARK  155  A    between atoms: _375  and  _377
REMARK  156  A    between atoms: _377  and  _378
REMARK  157  A    between atoms: _377  and  _380
REMARK  158  A    between atoms: _380  and  _381
REMARK  159  A    between atoms: _384  and  _386
REMARK  160  A    between atoms: _386  and  _387
REMARK  161  A    between atoms: _386  and  _389
REMARK  162  A    between atoms: _389  and  _390
REMARK  163  A    between atoms: _393  and  _395
REMARK  164  A    between atoms: _395  and  _396
REMARK  165  A    between atoms: _395  and  _398
REMARK  166  A    between atoms: _398  and  _399
REMARK  167  A    between atoms: _402  and  _404
REMARK  168  A    between atoms: _404  and  _405
REMARK  169  A    between atoms: _404  and  _407
REMARK  170  A    between atoms: _410  and  _412
REMARK  171  A    between atoms: _412  and  _413
REMARK  172  A    between atoms: _412  and  _415
REMARK  173  A    between atoms: _415  and  _416
REMARK  174  A    between atoms: _419  and  _421
REMARK  175  A    between atoms: _421  and  _422
REMARK  176  A    between atoms: _421  and  _424
REMARK  177  A    between atoms: _424  and  _425
REMARK  178  A    between atoms: _425  and  _426
REMARK  179  A    between atoms: _426  and  _427
REMARK  180  A    between atoms: _427  and  _428
REMARK  181  A    between atoms: _432  and  _434
REMARK  182  A    between atoms: _434  and  _435
REMARK  183  A    between atoms: _434  and  _437
REMARK  184  A    between atoms: _437  and  _438
REMARK  185  A    between atoms: _438  and  _439
REMARK  186  A    between atoms: _441  and  _443
REMARK  187  A    between atoms: _443  and  _444
REMARK  188  A    between atoms: _443  and  _446
REMARK  189  A    between atoms: _446  and  _447
REMARK  190  A    between atoms: _450  and  _452
REMARK  191  A    between atoms: _452  and  _453
REMARK  192  A    between atoms: _455  and  _457
REMARK  193  A    between atoms: _457  and  _458
REMARK  194  A    between atoms: _460  and  _462
REMARK  195  A    between atoms: _462  and  _463
REMARK  196  A    between atoms: _462  and  _465
REMARK  197  A    between atoms: _465  and  _466
REMARK  198  A    between atoms: _469  and  _471
REMARK  199  A    between atoms: _471  and  _472
REMARK  200  A    between atoms: _474  and  _476
REMARK  201  A    between atoms: _476  and  _477
REMARK  202  A    between atoms: _479  and  _481
REMARK  203  A    between atoms: _481  and  _482
REMARK  204  A    between atoms: _481  and  _484
REMARK  205  A    between atoms: _484  and  _485
REMARK  206  A    between atoms: _491  and  _493
REMARK  207  A    between atoms: _493  and  _494
REMARK  208  A    between atoms: _493  and  _496
REMARK  209  A    between atoms: _496  and  _497
REMARK  210  A    between atoms: _500  and  _502
REMARK  211  A    between atoms: _502  and  _503
REMARK  212  A    between atoms: _502  and  _505
REMARK  213  A    between atoms: _508  and  _510
REMARK  214  A    between atoms: _510  and  _511
REMARK  215  A    between atoms: _510  and  _513
REMARK  216  A    between atoms: _513  and  _514
REMARK  217  A    between atoms: _517  and  _519
REMARK  218  A    between atoms: _519  and  _520
REMARK  219  A    between atoms: _519  and  _522
REMARK  220  A    between atoms: _522  and  _523
REMARK  221  A    between atoms: _527  and  _528
REMARK  222  A    between atoms: _533  and  _535
REMARK  223  A    between atoms: _535  and  _536
REMARK  224  A    between atoms: _535  and  _538
REMARK  225  A    between atoms: _541  and  _543
REMARK  226  A    between atoms: _543  and  _544
REMARK  227  A    between atoms: _543  and  _546
REMARK  228  A    between atoms: _546  and  _547
REMARK  229  A    between atoms: _552  and  _554
REMARK  230  A    between atoms: _554  and  _555
REMARK  231  A    between atoms: _554  and  _557
REMARK  232  A    between atoms: _557  and  _558
REMARK  233  A    between atoms: _561  and  _563
REMARK  234  A    between atoms: _563  and  _564
REMARK  235  A    between atoms: _563  and  _566
REMARK  236  A    between atoms: _566  and  _567
REMARK  237  A    between atoms: _570  and  _572
REMARK  238  A    between atoms: _572  and  _573
REMARK  239  A    between atoms: _575  and  _577
REMARK  240  A    between atoms: _577  and  _578
REMARK  241  A    between atoms: _577  and  _580
REMARK  242  A    between atoms: _580  and  _581
REMARK  243  A    between atoms: _581  and  _582
REMARK  244  A    between atoms: _582  and  _583
REMARK  245  A    between atoms: _592  and  _594
REMARK  246  A    between atoms: _594  and  _595
REMARK  247  A    between atoms: _594  and  _597
REMARK  248  A    between atoms: _597  and  _598
REMARK                            x       y       z     vdW  Elec       q    Type
REMARK                         _______ _______ _______ _____ _____    ______ ____
ROOT
ATOM      1  O   HOH     1       9.293  28.801   2.053  0.00  0.00    +0.000 OA
ENDROOT
TORSDOF 0
REMARK  Name = ../refined-set-2016/1d4h/1d4h_pocket.pdb
REMARK  248 active torsions:
REMARK  status: ('A' for Active; 'I' for Inactive)
REMARK    1  A    between atoms: _1  and  _3
REMARK    2  A    between atoms: _3  and  _4
REMARK    3  A    between atoms: _3  and  _6
REMARK    4  A    between atoms: _6  and  _7
REMARK    5  A    between atoms: _7  and  _8
REMARK    6  A    between atoms: _8  and  _9
REMARK    7  A    between atoms: _18  and  _20
REMARK    8  A    between atoms: _20  and  _21
REMARK    9  A    between atoms: _20  and  _23
REMARK   10  A    between atoms: _23  and  _24
REMARK   11  A    between atoms: _27  and  _29
REMARK   12  A    between atoms: _29  and  _30
REMARK   13  A    between atoms: _29  and  _32
REMARK   14  A    between atoms: _32  and  _33
REMARK   15  A    between atoms: _36  and  _38
REMARK   16  A    between atoms: _38  and  _39
REMARK   17  A    between atoms: _38  and  _41
REMARK   18  A    between atoms: _41  and  _42
REMARK   19  A    between atoms: _45  and  _47
REMARK   20  A    between atoms: _47  and  _48
REMARK   21  A    between atoms: _47  and  _50
REMARK   22  A    between atoms: _50  and  _51
REMARK   23  A    between atoms: _54  and  _56
REMARK   24  A    between atoms: _56  and  _57
REMARK   25  A    between atoms: _56  and  _59
REMARK   26  A    between atoms: _59  and  _60
REMARK   27  A    between atoms: _63  and  _65
REMARK   28  A    between atoms: _65  and  _66
REMARK   29  A    between atoms: _68  and  _70
REMARK   30  A    between atoms: _70  and  _71
REMARK   31  A    between atoms: _74  and  _76
REMARK   32  A    between atoms: _76  and  _77
REMARK   33  A    between atoms: _76  and  _79
REMARK   34  A    between atoms: _79  and  _80
REMARK   35  A    between atoms: _83  and  _85
REMARK   36  A    between atoms: _85  and  _86
REMARK   37  A    between atoms: _85  and  _88
REMARK   38  A    between atoms: _88  and  _89
REMARK   39  A    between atoms: _92  and  _94
REMARK   40  A    between atoms: _94  and  _95
REMARK   41  A    between atoms: _94  and  _97
REMARK   42  A    between atoms: _97  and  _98
REMARK   43  A    between atoms: _101  and  _103
REMARK   44  A    between atoms: _103  and  _104
REMARK   45  A    between atoms: _103  and  _106
REMARK   46  A    between atoms: _109  and  _111
REMARK   47  A    between atoms: _111  and  _112
REMARK   48  A    between atoms: _111  and  _114
REMARK   49  A    between atoms: _114  and  _115
REMARK   50  A    between atoms: _118  and  _120
REMARK   51  A    between atoms: _120  and  _121
REMARK   52  A    between atoms: _120  and  _123
REMARK   53  A    between atoms: _123  and  _124
REMARK   54  A    between atoms: _124  and  _125
REMARK   55  A    between atoms: _125  and  _126
REMARK   56  A    between atoms: _126  and  _127
REMARK   57  A    between atoms: _131  and  _133
REMARK   58  A    between atoms: _133  and  _134
REMARK   59  A    between atoms: _133  and  _136
REMARK   60  A    between atoms: _136  and  _137
REMARK   61  A    between atoms: _137  and  _138
REMARK   62  A    between atoms: _140  and  _142
REMARK   63  A    between atoms: _142  and  _143
REMARK   64  A    between atoms: _142  and  _145
REMARK   65  A    between atoms: _145  and  _146
REMARK   66  A    between atoms: _149  and  _151
REMARK   67  A    between atoms: _151  and  _152
REMARK   68  A    between atoms: _154  and  _156
REMARK   69  A    between atoms: _156  and  _157
REMARK   70  A    between atoms: _159  and  _161
REMARK   71  A    between atoms: _161  and  _162
REMARK   72  A    between atoms: _161  and  _164
REMARK   73  A    between atoms: _164  and  _165
REMARK   74  A    between atoms: _168  and  _170
REMARK   75  A    between atoms: _170  and  _171
REMARK   76  A    between atoms: _173  and  _175
REMARK   77  A    between atoms: _175  and  _176
REMARK   78  A    between atoms: _178  and  _180
REMARK   79  A    between atoms: _180  and  _181
REMARK   80  A    between atoms: _180  and  _183
REMARK   81  A    between atoms: _183  and  _184
REMARK   82  A    between atoms: _190  and  _192
REMARK   83  A    between atoms: _192  and  _193
REMARK   84  A    between atoms: _192  and  _195
REMARK   85  A    between atoms: _195  and  _196
REMARK   86  A    between atoms: _199  and  _201
REMARK   87  A    between atoms: _201  and  _202
REMARK   88  A    between atoms: _201  and  _204
REMARK   89  A    between atoms: _207  and  _209
REMARK   90  A    between atoms: _209  and  _210
REMARK   91  A    between atoms: _209  and  _212
REMARK   92  A    between atoms: _212  and  _213
REMARK   93  A    between atoms: _216  and  _218
REMARK   94  A    between atoms: _218  and  _219
REMARK   95  A    between atoms: _218  and  _221
REMARK   96  A    between atoms: _221  and  _222
REMARK   97  A    between atoms: _226  and  _227
REMARK   98  A    between atoms: _232  and  _234
REMARK   99  A    between atoms: _234  and  _235
REMARK  100  A    between atoms: _234  and  _237
REMARK  101  A    between atoms: _240  and  _242
REMARK  102  A    between atoms: _242  and  _243
REMARK  103  A    between atoms: _242  and  _245
REMARK  104  A    between atoms: _245  and  _246
REMARK  105  A    between atoms: _251  and  _253
REMARK  106  A    between atoms: _253  and  _254
REMARK  107  A    between atoms: _253  and  _256
REMARK  108  A    between atoms: _256  and  _257
REMARK  109  A    between atoms: _260  and  _262
REMARK  110  A    between atoms: _262  and  _263
REMARK  111  A    between atoms: _262  and  _265
REMARK  112  A    between atoms: _265  and  _266
REMARK  113  A    between atoms: _269  and  _271
REMARK  114  A    between atoms: _271  and  _272
REMARK  115  A    between atoms: _274  and  _276
REMARK  116  A    between atoms: _276  and  _277
REMARK  117  A    between atoms: _276  and  _279
REMARK  118  A    between atoms: _279  and  _280
REMARK  119  A    between atoms: _280  and  _281
REMARK  120  A    between atoms: _281  and  _282
REMARK  121  A    between atoms: _291  and  _293
REMARK  122  A    between atoms: _293  and  _294
REMARK  123  A    between atoms: _293  and  _296
REMARK  124  A    between atoms: _296  and  _297
REMARK  125  A    between atoms: _302  and  _304
REMARK  126  A    between atoms: _304  and  _305
REMARK  127  A    between atoms: _304  and  _307
REMARK  128  A    between atoms: _307  and  _308
REMARK  129  A    between atoms: _308  and  _309
REMARK  130  A    between atoms: _309  and  _310
REMARK  131  A    between atoms: _319  and  _321
REMARK  132  A    between atoms: _321  and  _322
REMARK  133  A    between atoms: _321  and  _324
REMARK  134  A    between atoms: _324  and  _325
REMARK  135  A    between atoms: _328  and  _330
REMARK  136  A    between atoms: _330  and  _331
REMARK  137  A    between atoms: _330  and  _333
REMARK  138  A    between atoms: _333  and  _334
REMARK  139  A    between atoms: _337  and  _339
REMARK  140  A    between atoms: _339  and  _340
REMARK  141  A    between atoms: _339  and  _342
REMARK  142  A    between atoms: _342  and  _343
REMARK  143  A    between atoms: _346  and  _348
REMARK  144  A    between atoms: _348  and  _349
REMARK  145  A    between atoms: _348  and  _351
REMARK  146  A    between atoms: _351  and  _352
REMARK  147  A    between atoms: _355  and  _357
REMARK  148  A    between atoms: _357  and  _358
REMARK  149  A    between atoms: _357  and  _360
REMARK  150  A    between atoms: _360  and  _361
REMARK  151  A    between atoms: _364  and  _366
REMARK  152  A    between atoms: _366  and  _367
REMARK  153  A    between atoms: _369  and  _371
REMARK  154  A    between atoms: _371  and  _372
REMARK  155  A    between atoms: _375  and  _377
REMARK  156  A    between atoms: _377  and  _378
REMARK  157  A    between atoms: _377  and  _380
REMARK  158  A    between atoms: _380  and  _381
REMARK  159  A    between atoms: _384  and  _386
REMARK  160  A    between atoms: _386  and  _387
REMARK  161  A    between atoms: _386  and  _389
REMARK  162  A    between atoms: _389  and  _390
REMARK  163  A    between atoms: _393  and  _395
REMARK  164  A    between atoms: _395  and  _396
REMARK  165  A    between atoms: _395  and  _398
REMARK  166  A    between atoms: _398  and  _399
REMARK  167  A    between atoms: _402  and  _404
REMARK  168  A    between atoms: _404  and  _405
REMARK  169  A    between atoms: _404  and  _407
REMARK  170  A    between atoms: _410  and  _412
REMARK  171  A    between atoms: _412  and  _413
REMARK  172  A    between atoms: _412  and  _415
REMARK  173  A    between atoms: _415  and  _416
REMARK  174  A    between atoms: _419  and  _421
REMARK  175  A    between atoms: _421  and  _422
REMARK  176  A    between atoms: _421  and  _424
REMARK  177  A    between atoms: _424  and  _425
REMARK  178  A    between atoms: _425  and  _426
REMARK  179  A    between atoms: _426  and  _427
REMARK  180  A    between atoms: _427  and  _428
REMARK  181  A    between atoms: _432  and  _434
REMARK  182  A    between atoms: _434  and  _435
REMARK  183  A    between atoms: _434  and  _437
REMARK  184  A    between atoms: _437  and  _438
REMARK  185  A    between atoms: _438  and  _439
REMARK  186  A    between atoms: _441  and  _443
REMARK  187  A    between atoms: _443  and  _444
REMARK  188  A    between atoms: _443  and  _446
REMARK  189  A    between atoms: _446  and  _447
REMARK  190  A    between atoms: _450  and  _452
REMARK  191  A    between atoms: _452  and  _453
REMARK  192  A    between atoms: _455  and  _457
REMARK  193  A    between atoms: _457  and  _458
REMARK  194  A    between atoms: _460  and  _462
REMARK  195  A    between atoms: _462  and  _463
REMARK  196  A    between atoms: _462  and  _465
REMARK  197  A    between atoms: _465  and  _466
REMARK  198  A    between atoms: _469  and  _471
REMARK  199  A    between atoms: _471  and  _472
REMARK  200  A    between atoms: _474  and  _476
REMARK  201  A    between atoms: _476  and  _477
REMARK  202  A    between atoms: _479  and  _481
REMARK  203  A    between atoms: _481  and  _482
REMARK  204  A    between atoms: _481  and  _484
REMARK  205  A    between atoms: _484  and  _485
REMARK  206  A    between atoms: _491  and  _493
REMARK  207  A    between atoms: _493  and  _494
REMARK  208  A    between atoms: _493  and  _496
REMARK  209  A    between atoms: _496  and  _497
REMARK  210  A    between atoms: _500  and  _502
REMARK  211  A    between atoms: _502  and  _503
REMARK  212  A    between atoms: _502  and  _505
REMARK  213  A    between atoms: _508  and  _510
REMARK  214  A    between atoms: _510  and  _511
REMARK  215  A    between atoms: _510  and  _513
REMARK  216  A    between atoms: _513  and  _514
REMARK  217  A    between atoms: _517  and  _519
REMARK  218  A    between atoms: _519  and  _520
REMARK  219  A    between atoms: _519  and  _522
REMARK  220  A    between atoms: _522  and  _523
REMARK  221  A    between atoms: _527  and  _528
REMARK  222  A    between atoms: _533  and  _535
REMARK  223  A    between atoms: _535  and  _536
REMARK  224  A    between atoms: _535  and  _538
REMARK  225  A    between atoms: _541  and  _543
REMARK  226  A    between atoms: _543  and  _544
REMARK  227  A    between atoms: _543  and  _546
REMARK  228  A    between atoms: _546  and  _547
REMARK  229  A    between atoms: _552  and  _554
REMARK  230  A    between atoms: _554  and  _555
REMARK  231  A    between atoms: _554  and  _557
REMARK  232  A    between atoms: _557  and  _558
REMARK  233  A    between atoms: _561  and  _563
REMARK  234  A    between atoms: _563  and  _564
REMARK  235  A    between atoms: _563  and  _566
REMARK  236  A    between atoms: _566  and  _567
REMARK  237  A    between atoms: _570  and  _572
REMARK  238  A    between atoms: _572  and  _573
REMARK  239  A    between atoms: _575  and  _577
REMARK  240  A    between atoms: _577  and  _578
REMARK  241  A    between atoms: _577  and  _580
REMARK  242  A    between atoms: _580  and  _581
REMARK  243  A    between atoms: _581  and  _582
REMARK  244  A    between atoms: _582  and  _583
REMARK  245  A    between atoms: _592  and  _594
REMARK  246  A    between atoms: _594  and  _595
REMARK  247  A    between atoms: _594  and  _597
REMARK  248  A    between atoms: _597  and  _598
REMARK                            x       y       z     vdW  Elec       q    Type
REMARK                         _______ _______ _______ _____ _____    ______ ____
ROOT
ATOM      1  O   HOH     1      22.526  16.880  12.781  0.00  0.00    +0.000 OA
ENDROOT
TORSDOF 0
REMARK  Name = ../refined-set-2016/1d4h/1d4h_pocket.pdb
REMARK  248 active torsions:
REMARK  status: ('A' for Active; 'I' for Inactive)
REMARK    1  A    between atoms: _1  and  _3
REMARK    2  A    between atoms: _3  and  _4
REMARK    3  A    between atoms: _3  and  _6
REMARK    4  A    between atoms: _6  and  _7
REMARK    5  A    between atoms: _7  and  _8
REMARK    6  A    between atoms: _8  and  _9
REMARK    7  A    between atoms: _18  and  _20
REMARK    8  A    between atoms: _20  and  _21
REMARK    9  A    between atoms: _20  and  _23
REMARK   10  A    between atoms: _23  and  _24
REMARK   11  A    between atoms: _27  and  _29
REMARK   12  A    between atoms: _29  and  _30
REMARK   13  A    between atoms: _29  and  _32
REMARK   14  A    between atoms: _32  and  _33
REMARK   15  A    between atoms: _36  and  _38
REMARK   16  A    between atoms: _38  and  _39
REMARK   17  A    between atoms: _38  and  _41
REMARK   18  A    between atoms: _41  and  _42
REMARK   19  A    between atoms: _45  and  _47
REMARK   20  A    between atoms: _47  and  _48
REMARK   21  A    between atoms: _47  and  _50
REMARK   22  A    between atoms: _50  and  _51
REMARK   23  A    between atoms: _54  and  _56
REMARK   24  A    between atoms: _56  and  _57
REMARK   25  A    between atoms: _56  and  _59
REMARK   26  A    between atoms: _59  and  _60
REMARK   27  A    between atoms: _63  and  _65
REMARK   28  A    between atoms: _65  and  _66
REMARK   29  A    between atoms: _68  and  _70
REMARK   30  A    between atoms: _70  and  _71
REMARK   31  A    between atoms: _74  and  _76
REMARK   32  A    between atoms: _76  and  _77
REMARK   33  A    between atoms: _76  and  _79
REMARK   34  A    between atoms: _79  and  _80
REMARK   35  A    between atoms: _83  and  _85
REMARK   36  A    between atoms: _85  and  _86
REMARK   37  A    between atoms: _85  and  _88
REMARK   38  A    between atoms: _88  and  _89
REMARK   39  A    between atoms: _92  and  _94
REMARK   40  A    between atoms: _94  and  _95
REMARK   41  A    between atoms: _94  and  _97
REMARK   42  A    between atoms: _97  and  _98
REMARK   43  A    between atoms: _101  and  _103
REMARK   44  A    between atoms: _103  and  _104
REMARK   45  A    between atoms: _103  and  _106
REMARK   46  A    between atoms: _109  and  _111
REMARK   47  A    between atoms: _111  and  _112
REMARK   48  A    between atoms: _111  and  _114
REMARK   49  A    between atoms: _114  and  _115
REMARK   50  A    between atoms: _118  and  _120
REMARK   51  A    between atoms: _120  and  _121
REMARK   52  A    between atoms: _120  and  _123
REMARK   53  A    between atoms: _123  and  _124
REMARK   54  A    between atoms: _124  and  _125
REMARK   55  A    between atoms: _125  and  _126
REMARK   56  A    between atoms: _126  and  _127
REMARK   57  A    between atoms: _131  and  _133
REMARK   58  A    between atoms: _133  and  _134
REMARK   59  A    between atoms: _133  and  _136
REMARK   60  A    between atoms: _136  and  _137
REMARK   61  A    between atoms: _137  and  _138
REMARK   62  A    between atoms: _140  and  _142
REMARK   63  A    between atoms: _142  and  _143
REMARK   64  A    between atoms: _142  and  _145
REMARK   65  A    between atoms: _145  and  _146
REMARK   66  A    between atoms: _149  and  _151
REMARK   67  A    between atoms: _151  and  _152
REMARK   68  A    between atoms: _154  and  _156
REMARK   69  A    between atoms: _156  and  _157
REMARK   70  A    between atoms: _159  and  _161
REMARK   71  A    between atoms: _161  and  _162
REMARK   72  A    between atoms: _161  and  _164
REMARK   73  A    between atoms: _164  and  _165
REMARK   74  A    between atoms: _168  and  _170
REMARK   75  A    between atoms: _170  and  _171
REMARK   76  A    between atoms: _173  and  _175
REMARK   77  A    between atoms: _175  and  _176
REMARK   78  A    between atoms: _178  and  _180
REMARK   79  A    between atoms: _180  and  _181
REMARK   80  A    between atoms: _180  and  _183
REMARK   81  A    between atoms: _183  and  _184
REMARK   82  A    between atoms: _190  and  _192
REMARK   83  A    between atoms: _192  and  _193
REMARK   84  A    between atoms: _192  and  _195
REMARK   85  A    between atoms: _195  and  _196
REMARK   86  A    between atoms: _199  and  _201
REMARK   87  A    between atoms: _201  and  _202
REMARK   88  A    between atoms: _201  and  _204
REMARK   89  A    between atoms: _207  and  _209
REMARK   90  A    between atoms: _209  and  _210
REMARK   91  A    between atoms: _209  and  _212
REMARK   92  A    between atoms: _212  and  _213
REMARK   93  A    between atoms: _216  and  _218
REMARK   94  A    between atoms: _218  and  _219
REMARK   95  A    between atoms: _218  and  _221
REMARK   96  A    between atoms: _221  and  _222
REMARK   97  A    between atoms: _226  and  _227
REMARK   98  A    between atoms: _232  and  _234
REMARK   99  A    between atoms: _234  and  _235
REMARK  100  A    between atoms: _234  and  _237
REMARK  101  A    between atoms: _240  and  _242
REMARK  102  A    between atoms: _242  and  _243
REMARK  103  A    between atoms: _242  and  _245
REMARK  104  A    between atoms: _245  and  _246
REMARK  105  A    between atoms: _251  and  _253
REMARK  106  A    between atoms: _253  and  _254
REMARK  107  A    between atoms: _253  and  _256
REMARK  108  A    between atoms: _256  and  _257
REMARK  109  A    between atoms: _260  and  _262
REMARK  110  A    between atoms: _262  and  _263
REMARK  111  A    between atoms: _262  and  _265
REMARK  112  A    between atoms: _265  and  _266
REMARK  113  A    between atoms: _269  and  _271
REMARK  114  A    between atoms: _271  and  _272
REMARK  115  A    between atoms: _274  and  _276
REMARK  116  A    between atoms: _276  and  _277
REMARK  117  A    between atoms: _276  and  _279
REMARK  118  A    between atoms: _279  and  _280
REMARK  119  A    between atoms: _280  and  _281
REMARK  120  A    between atoms: _281  and  _282
REMARK  121  A    between atoms: _291  and  _293
REMARK  122  A    between atoms: _293  and  _294
REMARK  123  A    between atoms: _293  and  _296
REMARK  124  A    between atoms: _296  and  _297
REMARK  125  A    between atoms: _302  and  _304
REMARK  126  A    between atoms: _304  and  _305
REMARK  127  A    between atoms: _304  and  _307
REMARK  128  A    between atoms: _307  and  _308
REMARK  129  A    between atoms: _308  and  _309
REMARK  130  A    between atoms: _309  and  _310
REMARK  131  A    between atoms: _319  and  _321
REMARK  132  A    between atoms: _321  and  _322
REMARK  133  A    between atoms: _321  and  _324
REMARK  134  A    between atoms: _324  and  _325
REMARK  135  A    between atoms: _328  and  _330
REMARK  136  A    between atoms: _330  and  _331
REMARK  137  A    between atoms: _330  and  _333
REMARK  138  A    between atoms: _333  and  _334
REMARK  139  A    between atoms: _337  and  _339
REMARK  140  A    between atoms: _339  and  _340
REMARK  141  A    between atoms: _339  and  _342
REMARK  142  A    between atoms: _342  and  _343
REMARK  143  A    between atoms: _346  and  _348
REMARK  144  A    between atoms: _348  and  _349
REMARK  145  A    between atoms: _348  and  _351
REMARK  146  A    between atoms: _351  and  _352
REMARK  147  A    between atoms: _355  and  _357
REMARK  148  A    between atoms: _357  and  _358
REMARK  149  A    between atoms: _357  and  _360
REMARK  150  A    between atoms: _360  and  _361
REMARK  151  A    between atoms: _364  and  _366
REMARK  152  A    between atoms: _366  and  _367
REMARK  153  A    between atoms: _369  and  _371
REMARK  154  A    between atoms: _371  and  _372
REMARK  155  A    between atoms: _375  and  _377
REMARK  156  A    between atoms: _377  and  _378
REMARK  157  A    between atoms: _377  and  _380
REMARK  158  A    between atoms: _380  and  _381
REMARK  159  A    between atoms: _384  and  _386
REMARK  160  A    between atoms: _386  and  _387
REMARK  161  A    between atoms: _386  and  _389
REMARK  162  A    between atoms: _389  and  _390
REMARK  163  A    between atoms: _393  and  _395
REMARK  164  A    between atoms: _395  and  _396
REMARK  165  A    between atoms: _395  and  _398
REMARK  166  A    between atoms: _398  and  _399
REMARK  167  A    between atoms: _402  and  _404
REMARK  168  A    between atoms: _404  and  _405
REMARK  169  A    between atoms: _404  and  _407
REMARK  170  A    between atoms: _410  and  _412
REMARK  171  A    between atoms: _412  and  _413
REMARK  172  A    between atoms: _412  and  _415
REMARK  173  A    between atoms: _415  and  _416
REMARK  174  A    between atoms: _419  and  _421
REMARK  175  A    between atoms: _421  and  _422
REMARK  176  A    between atoms: _421  and  _424
REMARK  177  A    between atoms: _424  and  _425
REMARK  178  A    between atoms: _425  and  _426
REMARK  179  A    between atoms: _426  and  _427
REMARK  180  A    between atoms: _427  and  _428
REMARK  181  A    between atoms: _432  and  _434
REMARK  182  A    between atoms: _434  and  _435
REMARK  183  A    between atoms: _434  and  _437
REMARK  184  A    between atoms: _437  and  _438
REMARK  185  A    between atoms: _438  and  _439
REMARK  186  A    between atoms: _441  and  _443
REMARK  187  A    between atoms: _443  and  _444
REMARK  188  A    between atoms: _443  and  _446
REMARK  189  A    between atoms: _446  and  _447
REMARK  190  A    between atoms: _450  and  _452
REMARK  191  A    between atoms: _452  and  _453
REMARK  192  A    between atoms: _455  and  _457
REMARK  193  A    between atoms: _457  and  _458
REMARK  194  A    between atoms: _460  and  _462
REMARK  195  A    between atoms: _462  and  _463
REMARK  196  A    between atoms: _462  and  _465
REMARK  197  A    between atoms: _465  and  _466
REMARK  198  A    between atoms: _469  and  _471
REMARK  199  A    between atoms: _471  and  _472
REMARK  200  A    between atoms: _474  and  _476
REMARK  201  A    between atoms: _476  and  _477
REMARK  202  A    between atoms: _479  and  _481
REMARK  203  A    between atoms: _481  and  _482
REMARK  204  A    between atoms: _481  and  _484
REMARK  205  A    between atoms: _484  and  _485
REMARK  206  A    between atoms: _491  and  _493
REMARK  207  A    between atoms: _493  and  _494
REMARK  208  A    between atoms: _493  and  _496
REMARK  209  A    between atoms: _496  and  _497
REMARK  210  A    between atoms: _500  and  _502
REMARK  211  A    between atoms: _502  and  _503
REMARK  212  A    between atoms: _502  and  _505
REMARK  213  A    between atoms: _508  and  _510
REMARK  214  A    between atoms: _510  and  _511
REMARK  215  A    between atoms: _510  and  _513
REMARK  216  A    between atoms: _513  and  _514
REMARK  217  A    between atoms: _517  and  _519
REMARK  218  A    between atoms: _519  and  _520
REMARK  219  A    between atoms: _519  and  _522
REMARK  220  A    between atoms: _522  and  _523
REMARK  221  A    between atoms: _527  and  _528
REMARK  222  A    between atoms: _533  and  _535
REMARK  223  A    between atoms: _535  and  _536
REMARK  224  A    between atoms: _535  and  _538
REMARK  225  A    between atoms: _541  and  _543
REMARK  226  A    between atoms: _543  and  _544
REMARK  227  A    between atoms: _543  and  _546
REMARK  228  A    between atoms: _546  and  _547
REMARK  229  A    between atoms: _552  and  _554
REMARK  230  A    between atoms: _554  and  _555
REMARK  231  A    between atoms: _554  and  _557
REMARK  232  A    between atoms: _557  and  _558
REMARK  233  A    between atoms: _561  and  _563
REMARK  234  A    between atoms: _563  and  _564
REMARK  235  A    between atoms: _563  and  _566
REMARK  236  A    between atoms: _566  and  _567
REMARK  237  A    between atoms: _570  and  _572
REMARK  238  A    between atoms: _572  and  _573
REMARK  239  A    between atoms: _575  and  _577
REMARK  240  A    between atoms: _577  and  _578
REMARK  241  A    between atoms: _577  and  _580
REMARK  242  A    between atoms: _580  and  _581
REMARK  243  A    between atoms: _581  and  _582
REMARK  244  A    between atoms: _582  and  _583
REMARK  245  A    between atoms: _592  and  _594
REMARK  246  A    between atoms: _594  and  _595
REMARK  247  A    between atoms: _594  and  _597
REMARK  248  A    between atoms: _597  and  _598
REMARK                            x       y       z     vdW  Elec       q    Type
REMARK                         _______ _______ _______ _____ _____    ______ ____
ROOT
ATOM      1  O   HOH     1       8.649  33.769  12.722  0.00  0.00    +0.000 OA
ENDROOT
TORSDOF 0
REMARK  Name = ../refined-set-2016/1d4h/1d4h_pocket.pdb
REMARK  248 active torsions:
REMARK  status: ('A' for Active; 'I' for Inactive)
REMARK    1  A    between atoms: _1  and  _3
REMARK    2  A    between atoms: _3  and  _4
REMARK    3  A    between atoms: _3  and  _6
REMARK    4  A    between atoms: _6  and  _7
REMARK    5  A    between atoms: _7  and  _8
REMARK    6  A    between atoms: _8  and  _9
REMARK    7  A    between atoms: _18  and  _20
REMARK    8  A    between atoms: _20  and  _21
REMARK    9  A    between atoms: _20  and  _23
REMARK   10  A    between atoms: _23  and  _24
REMARK   11  A    between atoms: _27  and  _29
REMARK   12  A    between atoms: _29  and  _30
REMARK   13  A    between atoms: _29  and  _32
REMARK   14  A    between atoms: _32  and  _33
REMARK   15  A    between atoms: _36  and  _38
REMARK   16  A    between atoms: _38  and  _39
REMARK   17  A    between atoms: _38  and  _41
REMARK   18  A    between atoms: _41  and  _42
REMARK   19  A    between atoms: _45  and  _47
REMARK   20  A    between atoms: _47  and  _48
REMARK   21  A    between atoms: _47  and  _50
REMARK   22  A    between atoms: _50  and  _51
REMARK   23  A    between atoms: _54  and  _56
REMARK   24  A    between atoms: _56  and  _57
REMARK   25  A    between atoms: _56  and  _59
REMARK   26  A    between atoms: _59  and  _60
REMARK   27  A    between atoms: _63  and  _65
REMARK   28  A    between atoms: _65  and  _66
REMARK   29  A    between atoms: _68  and  _70
REMARK   30  A    between atoms: _70  and  _71
REMARK   31  A    between atoms: _74  and  _76
REMARK   32  A    between atoms: _76  and  _77
REMARK   33  A    between atoms: _76  and  _79
REMARK   34  A    between atoms: _79  and  _80
REMARK   35  A    between atoms: _83  and  _85
REMARK   36  A    between atoms: _85  and  _86
REMARK   37  A    between atoms: _85  and  _88
REMARK   38  A    between atoms: _88  and  _89
REMARK   39  A    between atoms: _92  and  _94
REMARK   40  A    between atoms: _94  and  _95
REMARK   41  A    between atoms: _94  and  _97
REMARK   42  A    between atoms: _97  and  _98
REMARK   43  A    between atoms: _101  and  _103
REMARK   44  A    between atoms: _103  and  _104
REMARK   45  A    between atoms: _103  and  _106
REMARK   46  A    between atoms: _109  and  _111
REMARK   47  A    between atoms: _111  and  _112
REMARK   48  A    between atoms: _111  and  _114
REMARK   49  A    between atoms: _114  and  _115
REMARK   50  A    between atoms: _118  and  _120
REMARK   51  A    between atoms: _120  and  _121
REMARK   52  A    between atoms: _120  and  _123
REMARK   53  A    between atoms: _123  and  _124
REMARK   54  A    between atoms: _124  and  _125
REMARK   55  A    between atoms: _125  and  _126
REMARK   56  A    between atoms: _126  and  _127
REMARK   57  A    between atoms: _131  and  _133
REMARK   58  A    between atoms: _133  and  _134
REMARK   59  A    between atoms: _133  and  _136
REMARK   60  A    between atoms: _136  and  _137
REMARK   61  A    between atoms: _137  and  _138
REMARK   62  A    between atoms: _140  and  _142
REMARK   63  A    between atoms: _142  and  _143
REMARK   64  A    between atoms: _142  and  _145
REMARK   65  A    between atoms: _145  and  _146
REMARK   66  A    between atoms: _149  and  _151
REMARK   67  A    between atoms: _151  and  _152
REMARK   68  A    between atoms: _154  and  _156
REMARK   69  A    between atoms: _156  and  _157
REMARK   70  A    between atoms: _159  and  _161
REMARK   71  A    between atoms: _161  and  _162
REMARK   72  A    between atoms: _161  and  _164
REMARK   73  A    between atoms: _164  and  _165
REMARK   74  A    between atoms: _168  and  _170
REMARK   75  A    between atoms: _170  and  _171
REMARK   76  A    between atoms: _173  and  _175
REMARK   77  A    between atoms: _175  and  _176
REMARK   78  A    between atoms: _178  and  _180
REMARK   79  A    between atoms: _180  and  _181
REMARK   80  A    between atoms: _180  and  _183
REMARK   81  A    between atoms: _183  and  _184
REMARK   82  A    between atoms: _190  and  _192
REMARK   83  A    between atoms: _192  and  _193
REMARK   84  A    between atoms: _192  and  _195
REMARK   85  A    between atoms: _195  and  _196
REMARK   86  A    between atoms: _199  and  _201
REMARK   87  A    between atoms: _201  and  _202
REMARK   88  A    between atoms: _201  and  _204
REMARK   89  A    between atoms: _207  and  _209
REMARK   90  A    between atoms: _209  and  _210
REMARK   91  A    between atoms: _209  and  _212
REMARK   92  A    between atoms: _212  and  _213
REMARK   93  A    between atoms: _216  and  _218
REMARK   94  A    between atoms: _218  and  _219
REMARK   95  A    between atoms: _218  and  _221
REMARK   96  A    between atoms: _221  and  _222
REMARK   97  A    between atoms: _226  and  _227
REMARK   98  A    between atoms: _232  and  _234
REMARK   99  A    between atoms: _234  and  _235
REMARK  100  A    between atoms: _234  and  _237
REMARK  101  A    between atoms: _240  and  _242
REMARK  102  A    between atoms: _242  and  _243
REMARK  103  A    between atoms: _242  and  _245
REMARK  104  A    between atoms: _245  and  _246
REMARK  105  A    between atoms: _251  and  _253
REMARK  106  A    between atoms: _253  and  _254
REMARK  107  A    between atoms: _253  and  _256
REMARK  108  A    between atoms: _256  and  _257
REMARK  109  A    between atoms: _260  and  _262
REMARK  110  A    between atoms: _262  and  _263
REMARK  111  A    between atoms: _262  and  _265
REMARK  112  A    between atoms: _265  and  _266
REMARK  113  A    between atoms: _269  and  _271
REMARK  114  A    between atoms: _271  and  _272
REMARK  115  A    between atoms: _274  and  _276
REMARK  116  A    between atoms: _276  and  _277
REMARK  117  A    between atoms: _276  and  _279
REMARK  118  A    between atoms: _279  and  _280
REMARK  119  A    between atoms: _280  and  _281
REMARK  120  A    between atoms: _281  and  _282
REMARK  121  A    between atoms: _291  and  _293
REMARK  122  A    between atoms: _293  and  _294
REMARK  123  A    between atoms: _293  and  _296
REMARK  124  A    between atoms: _296  and  _297
REMARK  125  A    between atoms: _302  and  _304
REMARK  126  A    between atoms: _304  and  _305
REMARK  127  A    between atoms: _304  and  _307
REMARK  128  A    between atoms: _307  and  _308
REMARK  129  A    between atoms: _308  and  _309
REMARK  130  A    between atoms: _309  and  _310
REMARK  131  A    between atoms: _319  and  _321
REMARK  132  A    between atoms: _321  and  _322
REMARK  133  A    between atoms: _321  and  _324
REMARK  134  A    between atoms: _324  and  _325
REMARK  135  A    between atoms: _328  and  _330
REMARK  136  A    between atoms: _330  and  _331
REMARK  137  A    between atoms: _330  and  _333
REMARK  138  A    between atoms: _333  and  _334
REMARK  139  A    between atoms: _337  and  _339
REMARK  140  A    between atoms: _339  and  _340
REMARK  141  A    between atoms: _339  and  _342
REMARK  142  A    between atoms: _342  and  _343
REMARK  143  A    between atoms: _346  and  _348
REMARK  144  A    between atoms: _348  and  _349
REMARK  145  A    between atoms: _348  and  _351
REMARK  146  A    between atoms: _351  and  _352
REMARK  147  A    between atoms: _355  and  _357
REMARK  148  A    between atoms: _357  and  _358
REMARK  149  A    between atoms: _357  and  _360
REMARK  150  A    between atoms: _360  and  _361
REMARK  151  A    between atoms: _364  and  _366
REMARK  152  A    between atoms: _366  and  _367
REMARK  153  A    between atoms: _369  and  _371
REMARK  154  A    between atoms: _371  and  _372
REMARK  155  A    between atoms: _375  and  _377
REMARK  156  A    between atoms: _377  and  _378
REMARK  157  A    between atoms: _377  and  _380
REMARK  158  A    between atoms: _380  and  _381
REMARK  159  A    between atoms: _384  and  _386
REMARK  160  A    between atoms: _386  and  _387
REMARK  161  A    between atoms: _386  and  _389
REMARK  162  A    between atoms: _389  and  _390
REMARK  163  A    between atoms: _393  and  _395
REMARK  164  A    between atoms: _395  and  _396
REMARK  165  A    between atoms: _395  and  _398
REMARK  166  A    between atoms: _398  and  _399
REMARK  167  A    between atoms: _402  and  _404
REMARK  168  A    between atoms: _404  and  _405
REMARK  169  A    between atoms: _404  and  _407
REMARK  170  A    between atoms: _410  and  _412
REMARK  171  A    between atoms: _412  and  _413
REMARK  172  A    between atoms: _412  and  _415
REMARK  173  A    between atoms: _415  and  _416
REMARK  174  A    between atoms: _419  and  _421
REMARK  175  A    between atoms: _421  and  _422
REMARK  176  A    between atoms: _421  and  _424
REMARK  177  A    between atoms: _424  and  _425
REMARK  178  A    between atoms: _425  and  _426
REMARK  179  A    between atoms: _426  and  _427
REMARK  180  A    between atoms: _427  and  _428
REMARK  181  A    between atoms: _432  and  _434
REMARK  182  A    between atoms: _434  and  _435
REMARK  183  A    between atoms: _434  and  _437
REMARK  184  A    between atoms: _437  and  _438
REMARK  185  A    between atoms: _438  and  _439
REMARK  186  A    between atoms: _441  and  _443
REMARK  187  A    between atoms: _443  and  _444
REMARK  188  A    between atoms: _443  and  _446
REMARK  189  A    between atoms: _446  and  _447
REMARK  190  A    between atoms: _450  and  _452
REMARK  191  A    between atoms: _452  and  _453
REMARK  192  A    between atoms: _455  and  _457
REMARK  193  A    between atoms: _457  and  _458
REMARK  194  A    between atoms: _460  and  _462
REMARK  195  A    between atoms: _462  and  _463
REMARK  196  A    between atoms: _462  and  _465
REMARK  197  A    between atoms: _465  and  _466
REMARK  198  A    between atoms: _469  and  _471
REMARK  199  A    between atoms: _471  and  _472
REMARK  200  A    between atoms: _474  and  _476
REMARK  201  A    between atoms: _476  and  _477
REMARK  202  A    between atoms: _479  and  _481
REMARK  203  A    between atoms: _481  and  _482
REMARK  204  A    between atoms: _481  and  _484
REMARK  205  A    between atoms: _484  and  _485
REMARK  206  A    between atoms: _491  and  _493
REMARK  207  A    between atoms: _493  and  _494
REMARK  208  A    between atoms: _493  and  _496
REMARK  209  A    between atoms: _496  and  _497
REMARK  210  A    between atoms: _500  and  _502
REMARK  211  A    between atoms: _502  and  _503
REMARK  212  A    between atoms: _502  and  _505
REMARK  213  A    between atoms: _508  and  _510
REMARK  214  A    between atoms: _510  and  _511
REMARK  215  A    between atoms: _510  and  _513
REMARK  216  A    between atoms: _513  and  _514
REMARK  217  A    between atoms: _517  and  _519
REMARK  218  A    between atoms: _519  and  _520
REMARK  219  A    between atoms: _519  and  _522
REMARK  220  A    between atoms: _522  and  _523
REMARK  221  A    between atoms: _527  and  _528
REMARK  222  A    between atoms: _533  and  _535
REMARK  223  A    between atoms: _535  and  _536
REMARK  224  A    between atoms: _535  and  _538
REMARK  225  A    between atoms: _541  and  _543
REMARK  226  A    between atoms: _543  and  _544
REMARK  227  A    between atoms: _543  and  _546
REMARK  228  A    between atoms: _546  and  _547
REMARK  229  A    between atoms: _552  and  _554
REMARK  230  A    between atoms: _554  and  _555
REMARK  231  A    between atoms: _554  and  _557
REMARK  232  A    between atoms: _557  and  _558
REMARK  233  A    between atoms: _561  and  _563
REMARK  234  A    between atoms: _563  and  _564
REMARK  235  A    between atoms: _563  and  _566
REMARK  236  A    between atoms: _566  and  _567
REMARK  237  A    between atoms: _570  and  _572
REMARK  238  A    between atoms: _572  and  _573
REMARK  239  A    between atoms: _575  and  _577
REMARK  240  A    between atoms: _577  and  _578
REMARK  241  A    between atoms: _577  and  _580
REMARK  242  A    between atoms: _580  and  _581
REMARK  243  A    between atoms: _581  and  _582
REMARK  244  A    between atoms: _582  and  _583
REMARK  245  A    between atoms: _592  and  _594
REMARK  246  A    between atoms: _594  and  _595
REMARK  247  A    between atoms: _594  and  _597
REMARK  248  A    between atoms: _597  and  _598
REMARK                            x       y       z     vdW  Elec       q    Type
REMARK                         _______ _______ _______ _____ _____    ______ ____
ROOT
ATOM      1  O   HOH     1       3.332  26.234   7.316  0.00  0.00    +0.000 OA
ENDROOT
TORSDOF 0
REMARK  Name = ../refined-set-2016/1d4h/1d4h_pocket.pdb
REMARK  248 active torsions:
REMARK  status: ('A' for Active; 'I' for Inactive)
REMARK    1  A    between atoms: _1  and  _3
REMARK    2  A    between atoms: _3  and  _4
REMARK    3  A    between atoms: _3  and  _6
REMARK    4  A    between atoms: _6  and  _7
REMARK    5  A    between atoms: _7  and  _8
REMARK    6  A    between atoms: _8  and  _9
REMARK    7  A    between atoms: _18  and  _20
REMARK    8  A    between atoms: _20  and  _21
REMARK    9  A    between atoms: _20  and  _23
REMARK   10  A    between atoms: _23  and  _24
REMARK   11  A    between atoms: _27  and  _29
REMARK   12  A    between atoms: _29  and  _30
REMARK   13  A    between atoms: _29  and  _32
REMARK   14  A    between atoms: _32  and  _33
REMARK   15  A    between atoms: _36  and  _38
REMARK   16  A    between atoms: _38  and  _39
REMARK   17  A    between atoms: _38  and  _41
REMARK   18  A    between atoms: _41  and  _42
REMARK   19  A    between atoms: _45  and  _47
REMARK   20  A    between atoms: _47  and  _48
REMARK   21  A    between atoms: _47  and  _50
REMARK   22  A    between atoms: _50  and  _51
REMARK   23  A    between atoms: _54  and  _56
REMARK   24  A    between atoms: _56  and  _57
REMARK   25  A    between atoms: _56  and  _59
REMARK   26  A    between atoms: _59  and  _60
REMARK   27  A    between atoms: _63  and  _65
REMARK   28  A    between atoms: _65  and  _66
REMARK   29  A    between atoms: _68  and  _70
REMARK   30  A    between atoms: _70  and  _71
REMARK   31  A    between atoms: _74  and  _76
REMARK   32  A    between atoms: _76  and  _77
REMARK   33  A    between atoms: _76  and  _79
REMARK   34  A    between atoms: _79  and  _80
REMARK   35  A    between atoms: _83  and  _85
REMARK   36  A    between atoms: _85  and  _86
REMARK   37  A    between atoms: _85  and  _88
REMARK   38  A    between atoms: _88  and  _89
REMARK   39  A    between atoms: _92  and  _94
REMARK   40  A    between atoms: _94  and  _95
REMARK   41  A    between atoms: _94  and  _97
REMARK   42  A    between atoms: _97  and  _98
REMARK   43  A    between atoms: _101  and  _103
REMARK   44  A    between atoms: _103  and  _104
REMARK   45  A    between atoms: _103  and  _106
REMARK   46  A    between atoms: _109  and  _111
REMARK   47  A    between atoms: _111  and  _112
REMARK   48  A    between atoms: _111  and  _114
REMARK   49  A    between atoms: _114  and  _115
REMARK   50  A    between atoms: _118  and  _120
REMARK   51  A    between atoms: _120  and  _121
REMARK   52  A    between atoms: _120  and  _123
REMARK   53  A    between atoms: _123  and  _124
REMARK   54  A    between atoms: _124  and  _125
REMARK   55  A    between atoms: _125  and  _126
REMARK   56  A    between atoms: _126  and  _127
REMARK   57  A    between atoms: _131  and  _133
REMARK   58  A    between atoms: _133  and  _134
REMARK   59  A    between atoms: _133  and  _136
REMARK   60  A    between atoms: _136  and  _137
REMARK   61  A    between atoms: _137  and  _138
REMARK   62  A    between atoms: _140  and  _142
REMARK   63  A    between atoms: _142  and  _143
REMARK   64  A    between atoms: _142  and  _145
REMARK   65  A    between atoms: _145  and  _146
REMARK   66  A    between atoms: _149  and  _151
REMARK   67  A    between atoms: _151  and  _152
REMARK   68  A    between atoms: _154  and  _156
REMARK   69  A    between atoms: _156  and  _157
REMARK   70  A    between atoms: _159  and  _161
REMARK   71  A    between atoms: _161  and  _162
REMARK   72  A    between atoms: _161  and  _164
REMARK   73  A    between atoms: _164  and  _165
REMARK   74  A    between atoms: _168  and  _170
REMARK   75  A    between atoms: _170  and  _171
REMARK   76  A    between atoms: _173  and  _175
REMARK   77  A    between atoms: _175  and  _176
REMARK   78  A    between atoms: _178  and  _180
REMARK   79  A    between atoms: _180  and  _181
REMARK   80  A    between atoms: _180  and  _183
REMARK   81  A    between atoms: _183  and  _184
REMARK   82  A    between atoms: _190  and  _192
REMARK   83  A    between atoms: _192  and  _193
REMARK   84  A    between atoms: _192  and  _195
REMARK   85  A    between atoms: _195  and  _196
REMARK   86  A    between atoms: _199  and  _201
REMARK   87  A    between atoms: _201  and  _202
REMARK   88  A    between atoms: _201  and  _204
REMARK   89  A    between atoms: _207  and  _209
REMARK   90  A    between atoms: _209  and  _210
REMARK   91  A    between atoms: _209  and  _212
REMARK   92  A    between atoms: _212  and  _213
REMARK   93  A    between atoms: _216  and  _218
REMARK   94  A    between atoms: _218  and  _219
REMARK   95  A    between atoms: _218  and  _221
REMARK   96  A    between atoms: _221  and  _222
REMARK   97  A    between atoms: _226  and  _227
REMARK   98  A    between atoms: _232  and  _234
REMARK   99  A    between atoms: _234  and  _235
REMARK  100  A    between atoms: _234  and  _237
REMARK  101  A    between atoms: _240  and  _242
REMARK  102  A    between atoms: _242  and  _243
REMARK  103  A    between atoms: _242  and  _245
REMARK  104  A    between atoms: _245  and  _246
REMARK  105  A    between atoms: _251  and  _253
REMARK  106  A    between atoms: _253  and  _254
REMARK  107  A    between atoms: _253  and  _256
REMARK  108  A    between atoms: _256  and  _257
REMARK  109  A    between atoms: _260  and  _262
REMARK  110  A    between atoms: _262  and  _263
REMARK  111  A    between atoms: _262  and  _265
REMARK  112  A    between atoms: _265  and  _266
REMARK  113  A    between atoms: _269  and  _271
REMARK  114  A    between atoms: _271  and  _272
REMARK  115  A    between atoms: _274  and  _276
REMARK  116  A    between atoms: _276  and  _277
REMARK  117  A    between atoms: _276  and  _279
REMARK  118  A    between atoms: _279  and  _280
REMARK  119  A    between atoms: _280  and  _281
REMARK  120  A    between atoms: _281  and  _282
REMARK  121  A    between atoms: _291  and  _293
REMARK  122  A    between atoms: _293  and  _294
REMARK  123  A    between atoms: _293  and  _296
REMARK  124  A    between atoms: _296  and  _297
REMARK  125  A    between atoms: _302  and  _304
REMARK  126  A    between atoms: _304  and  _305
REMARK  127  A    between atoms: _304  and  _307
REMARK  128  A    between atoms: _307  and  _308
REMARK  129  A    between atoms: _308  and  _309
REMARK  130  A    between atoms: _309  and  _310
REMARK  131  A    between atoms: _319  and  _321
REMARK  132  A    between atoms: _321  and  _322
REMARK  133  A    between atoms: _321  and  _324
REMARK  134  A    between atoms: _324  and  _325
REMARK  135  A    between atoms: _328  and  _330
REMARK  136  A    between atoms: _330  and  _331
REMARK  137  A    between atoms: _330  and  _333
REMARK  138  A    between atoms: _333  and  _334
REMARK  139  A    between atoms: _337  and  _339
REMARK  140  A    between atoms: _339  and  _340
REMARK  141  A    between atoms: _339  and  _342
REMARK  142  A    between atoms: _342  and  _343
REMARK  143  A    between atoms: _346  and  _348
REMARK  144  A    between atoms: _348  and  _349
REMARK  145  A    between atoms: _348  and  _351
REMARK  146  A    between atoms: _351  and  _352
REMARK  147  A    between atoms: _355  and  _357
REMARK  148  A    between atoms: _357  and  _358
REMARK  149  A    between atoms: _357  and  _360
REMARK  150  A    between atoms: _360  and  _361
REMARK  151  A    between atoms: _364  and  _366
REMARK  152  A    between atoms: _366  and  _367
REMARK  153  A    between atoms: _369  and  _371
REMARK  154  A    between atoms: _371  and  _372
REMARK  155  A    between atoms: _375  and  _377
REMARK  156  A    between atoms: _377  and  _378
REMARK  157  A    between atoms: _377  and  _380
REMARK  158  A    between atoms: _380  and  _381
REMARK  159  A    between atoms: _384  and  _386
REMARK  160  A    between atoms: _386  and  _387
REMARK  161  A    between atoms: _386  and  _389
REMARK  162  A    between atoms: _389  and  _390
REMARK  163  A    between atoms: _393  and  _395
REMARK  164  A    between atoms: _395  and  _396
REMARK  165  A    between atoms: _395  and  _398
REMARK  166  A    between atoms: _398  and  _399
REMARK  167  A    between atoms: _402  and  _404
REMARK  168  A    between atoms: _404  and  _405
REMARK  169  A    between atoms: _404  and  _407
REMARK  170  A    between atoms: _410  and  _412
REMARK  171  A    between atoms: _412  and  _413
REMARK  172  A    between atoms: _412  and  _415
REMARK  173  A    between atoms: _415  and  _416
REMARK  174  A    between atoms: _419  and  _421
REMARK  175  A    between atoms: _421  and  _422
REMARK  176  A    between atoms: _421  and  _424
REMARK  177  A    between atoms: _424  and  _425
REMARK  178  A    between atoms: _425  and  _426
REMARK  179  A    between atoms: _426  and  _427
REMARK  180  A    between atoms: _427  and  _428
REMARK  181  A    between atoms: _432  and  _434
REMARK  182  A    between atoms: _434  and  _435
REMARK  183  A    between atoms: _434  and  _437
REMARK  184  A    between atoms: _437  and  _438
REMARK  185  A    between atoms: _438  and  _439
REMARK  186  A    between atoms: _441  and  _443
REMARK  187  A    between atoms: _443  and  _444
REMARK  188  A    between atoms: _443  and  _446
REMARK  189  A    between atoms: _446  and  _447
REMARK  190  A    between atoms: _450  and  _452
REMARK  191  A    between atoms: _452  and  _453
REMARK  192  A    between atoms: _455  and  _457
REMARK  193  A    between atoms: _457  and  _458
REMARK  194  A    between atoms: _460  and  _462
REMARK  195  A    between atoms: _462  and  _463
REMARK  196  A    between atoms: _462  and  _465
REMARK  197  A    between atoms: _465  and  _466
REMARK  198  A    between atoms: _469  and  _471
REMARK  199  A    between atoms: _471  and  _472
REMARK  200  A    between atoms: _474  and  _476
REMARK  201  A    between atoms: _476  and  _477
REMARK  202  A    between atoms: _479  and  _481
REMARK  203  A    between atoms: _481  and  _482
REMARK  204  A    between atoms: _481  and  _484
REMARK  205  A    between atoms: _484  and  _485
REMARK  206  A    between atoms: _491  and  _493
REMARK  207  A    between atoms: _493  and  _494
REMARK  208  A    between atoms: _493  and  _496
REMARK  209  A    between atoms: _496  and  _497
REMARK  210  A    between atoms: _500  and  _502
REMARK  211  A    between atoms: _502  and  _503
REMARK  212  A    between atoms: _502  and  _505
REMARK  213  A    between atoms: _508  and  _510
REMARK  214  A    between atoms: _510  and  _511
REMARK  215  A    between atoms: _510  and  _513
REMARK  216  A    between atoms: _513  and  _514
REMARK  217  A    between atoms: _517  and  _519
REMARK  218  A    between atoms: _519  and  _520
REMARK  219  A    between atoms: _519  and  _522
REMARK  220  A    between atoms: _522  and  _523
REMARK  221  A    between atoms: _527  and  _528
REMARK  222  A    between atoms: _533  and  _535
REMARK  223  A    between atoms: _535  and  _536
REMARK  224  A    between atoms: _535  and  _538
REMARK  225  A    between atoms: _541  and  _543
REMARK  226  A    between atoms: _543  and  _544
REMARK  227  A    between atoms: _543  and  _546
REMARK  228  A    between atoms: _546  and  _547
REMARK  229  A    between atoms: _552  and  _554
REMARK  230  A    between atoms: _554  and  _555
REMARK  231  A    between atoms: _554  and  _557
REMARK  232  A    between atoms: _557  and  _558
REMARK  233  A    between atoms: _561  and  _563
REMARK  234  A    between atoms: _563  and  _564
REMARK  235  A    between atoms: _563  and  _566
REMARK  236  A    between atoms: _566  and  _567
REMARK  237  A    between atoms: _570  and  _572
REMARK  238  A    between atoms: _572  and  _573
REMARK  239  A    between atoms: _575  and  _577
REMARK  240  A    between atoms: _577  and  _578
REMARK  241  A    between atoms: _577  and  _580
REMARK  242  A    between atoms: _580  and  _581
REMARK  243  A    between atoms: _581  and  _582
REMARK  244  A    between atoms: _582  and  _583
REMARK  245  A    between atoms: _592  and  _594
REMARK  246  A    between atoms: _594  and  _595
REMARK  247  A    between atoms: _594  and  _597
REMARK  248  A    between atoms: _597  and  _598
REMARK                            x       y       z     vdW  Elec       q    Type
REMARK                         _______ _______ _______ _____ _____    ______ ____
ROOT
ATOM      1  O   HOH     1       8.544  28.039   4.649  0.00  0.00    +0.000 OA
ENDROOT
TORSDOF 0
REMARK  Name = ../refined-set-2016/1d4h/1d4h_pocket.pdb
REMARK  248 active torsions:
REMARK  status: ('A' for Active; 'I' for Inactive)
REMARK    1  A    between atoms: _1  and  _3
REMARK    2  A    between atoms: _3  and  _4
REMARK    3  A    between atoms: _3  and  _6
REMARK    4  A    between atoms: _6  and  _7
REMARK    5  A    between atoms: _7  and  _8
REMARK    6  A    between atoms: _8  and  _9
REMARK    7  A    between atoms: _18  and  _20
REMARK    8  A    between atoms: _20  and  _21
REMARK    9  A    between atoms: _20  and  _23
REMARK   10  A    between atoms: _23  and  _24
REMARK   11  A    between atoms: _27  and  _29
REMARK   12  A    between atoms: _29  and  _30
REMARK   13  A    between atoms: _29  and  _32
REMARK   14  A    between atoms: _32  and  _33
REMARK   15  A    between atoms: _36  and  _38
REMARK   16  A    between atoms: _38  and  _39
REMARK   17  A    between atoms: _38  and  _41
REMARK   18  A    between atoms: _41  and  _42
REMARK   19  A    between atoms: _45  and  _47
REMARK   20  A    between atoms: _47  and  _48
REMARK   21  A    between atoms: _47  and  _50
REMARK   22  A    between atoms: _50  and  _51
REMARK   23  A    between atoms: _54  and  _56
REMARK   24  A    between atoms: _56  and  _57
REMARK   25  A    between atoms: _56  and  _59
REMARK   26  A    between atoms: _59  and  _60
REMARK   27  A    between atoms: _63  and  _65
REMARK   28  A    between atoms: _65  and  _66
REMARK   29  A    between atoms: _68  and  _70
REMARK   30  A    between atoms: _70  and  _71
REMARK   31  A    between atoms: _74  and  _76
REMARK   32  A    between atoms: _76  and  _77
REMARK   33  A    between atoms: _76  and  _79
REMARK   34  A    between atoms: _79  and  _80
REMARK   35  A    between atoms: _83  and  _85
REMARK   36  A    between atoms: _85  and  _86
REMARK   37  A    between atoms: _85  and  _88
REMARK   38  A    between atoms: _88  and  _89
REMARK   39  A    between atoms: _92  and  _94
REMARK   40  A    between atoms: _94  and  _95
REMARK   41  A    between atoms: _94  and  _97
REMARK   42  A    between atoms: _97  and  _98
REMARK   43  A    between atoms: _101  and  _103
REMARK   44  A    between atoms: _103  and  _104
REMARK   45  A    between atoms: _103  and  _106
REMARK   46  A    between atoms: _109  and  _111
REMARK   47  A    between atoms: _111  and  _112
REMARK   48  A    between atoms: _111  and  _114
REMARK   49  A    between atoms: _114  and  _115
REMARK   50  A    between atoms: _118  and  _120
REMARK   51  A    between atoms: _120  and  _121
REMARK   52  A    between atoms: _120  and  _123
REMARK   53  A    between atoms: _123  and  _124
REMARK   54  A    between atoms: _124  and  _125
REMARK   55  A    between atoms: _125  and  _126
REMARK   56  A    between atoms: _126  and  _127
REMARK   57  A    between atoms: _131  and  _133
REMARK   58  A    between atoms: _133  and  _134
REMARK   59  A    between atoms: _133  and  _136
REMARK   60  A    between atoms: _136  and  _137
REMARK   61  A    between atoms: _137  and  _138
REMARK   62  A    between atoms: _140  and  _142
REMARK   63  A    between atoms: _142  and  _143
REMARK   64  A    between atoms: _142  and  _145
REMARK   65  A    between atoms: _145  and  _146
REMARK   66  A    between atoms: _149  and  _151
REMARK   67  A    between atoms: _151  and  _152
REMARK   68  A    between atoms: _154  and  _156
REMARK   69  A    between atoms: _156  and  _157
REMARK   70  A    between atoms: _159  and  _161
REMARK   71  A    between atoms: _161  and  _162
REMARK   72  A    between atoms: _161  and  _164
REMARK   73  A    between atoms: _164  and  _165
REMARK   74  A    between atoms: _168  and  _170
REMARK   75  A    between atoms: _170  and  _171
REMARK   76  A    between atoms: _173  and  _175
REMARK   77  A    between atoms: _175  and  _176
REMARK   78  A    between atoms: _178  and  _180
REMARK   79  A    between atoms: _180  and  _181
REMARK   80  A    between atoms: _180  and  _183
REMARK   81  A    between atoms: _183  and  _184
REMARK   82  A    between atoms: _190  and  _192
REMARK   83  A    between atoms: _192  and  _193
REMARK   84  A    between atoms: _192  and  _195
REMARK   85  A    between atoms: _195  and  _196
REMARK   86  A    between atoms: _199  and  _201
REMARK   87  A    between atoms: _201  and  _202
REMARK   88  A    between atoms: _201  and  _204
REMARK   89  A    between atoms: _207  and  _209
REMARK   90  A    between atoms: _209  and  _210
REMARK   91  A    between atoms: _209  and  _212
REMARK   92  A    between atoms: _212  and  _213
REMARK   93  A    between atoms: _216  and  _218
REMARK   94  A    between atoms: _218  and  _219
REMARK   95  A    between atoms: _218  and  _221
REMARK   96  A    between atoms: _221  and  _222
REMARK   97  A    between atoms: _226  and  _227
REMARK   98  A    between atoms: _232  and  _234
REMARK   99  A    between atoms: _234  and  _235
REMARK  100  A    between atoms: _234  and  _237
REMARK  101  A    between atoms: _240  and  _242
REMARK  102  A    between atoms: _242  and  _243
REMARK  103  A    between atoms: _242  and  _245
REMARK  104  A    between atoms: _245  and  _246
REMARK  105  A    between atoms: _251  and  _253
REMARK  106  A    between atoms: _253  and  _254
REMARK  107  A    between atoms: _253  and  _256
REMARK  108  A    between atoms: _256  and  _257
REMARK  109  A    between atoms: _260  and  _262
REMARK  110  A    between atoms: _262  and  _263
REMARK  111  A    between atoms: _262  and  _265
REMARK  112  A    between atoms: _265  and  _266
REMARK  113  A    between atoms: _269  and  _271
REMARK  114  A    between atoms: _271  and  _272
REMARK  115  A    between atoms: _274  and  _276
REMARK  116  A    between atoms: _276  and  _277
REMARK  117  A    between atoms: _276  and  _279
REMARK  118  A    between atoms: _279  and  _280
REMARK  119  A    between atoms: _280  and  _281
REMARK  120  A    between atoms: _281  and  _282
REMARK  121  A    between atoms: _291  and  _293
REMARK  122  A    between atoms: _293  and  _294
REMARK  123  A    between atoms: _293  and  _296
REMARK  124  A    between atoms: _296  and  _297
REMARK  125  A    between atoms: _302  and  _304
REMARK  126  A    between atoms: _304  and  _305
REMARK  127  A    between atoms: _304  and  _307
REMARK  128  A    between atoms: _307  and  _308
REMARK  129  A    between atoms: _308  and  _309
REMARK  130  A    between atoms: _309  and  _310
REMARK  131  A    between atoms: _319  and  _321
REMARK  132  A    between atoms: _321  and  _322
REMARK  133  A    between atoms: _321  and  _324
REMARK  134  A    between atoms: _324  and  _325
REMARK  135  A    between atoms: _328  and  _330
REMARK  136  A    between atoms: _330  and  _331
REMARK  137  A    between atoms: _330  and  _333
REMARK  138  A    between atoms: _333  and  _334
REMARK  139  A    between atoms: _337  and  _339
REMARK  140  A    between atoms: _339  and  _340
REMARK  141  A    between atoms: _339  and  _342
REMARK  142  A    between atoms: _342  and  _343
REMARK  143  A    between atoms: _346  and  _348
REMARK  144  A    between atoms: _348  and  _349
REMARK  145  A    between atoms: _348  and  _351
REMARK  146  A    between atoms: _351  and  _352
REMARK  147  A    between atoms: _355  and  _357
REMARK  148  A    between atoms: _357  and  _358
REMARK  149  A    between atoms: _357  and  _360
REMARK  150  A    between atoms: _360  and  _361
REMARK  151  A    between atoms: _364  and  _366
REMARK  152  A    between atoms: _366  and  _367
REMARK  153  A    between atoms: _369  and  _371
REMARK  154  A    between atoms: _371  and  _372
REMARK  155  A    between atoms: _375  and  _377
REMARK  156  A    between atoms: _377  and  _378
REMARK  157  A    between atoms: _377  and  _380
REMARK  158  A    between atoms: _380  and  _381
REMARK  159  A    between atoms: _384  and  _386
REMARK  160  A    between atoms: _386  and  _387
REMARK  161  A    between atoms: _386  and  _389
REMARK  162  A    between atoms: _389  and  _390
REMARK  163  A    between atoms: _393  and  _395
REMARK  164  A    between atoms: _395  and  _396
REMARK  165  A    between atoms: _395  and  _398
REMARK  166  A    between atoms: _398  and  _399
REMARK  167  A    between atoms: _402  and  _404
REMARK  168  A    between atoms: _404  and  _405
REMARK  169  A    between atoms: _404  and  _407
REMARK  170  A    between atoms: _410  and  _412
REMARK  171  A    between atoms: _412  and  _413
REMARK  172  A    between atoms: _412  and  _415
REMARK  173  A    between atoms: _415  and  _416
REMARK  174  A    between atoms: _419  and  _421
REMARK  175  A    between atoms: _421  and  _422
REMARK  176  A    between atoms: _421  and  _424
REMARK  177  A    between atoms: _424  and  _425
REMARK  178  A    between atoms: _425  and  _426
REMARK  179  A    between atoms: _426  and  _427
REMARK  180  A    between atoms: _427  and  _428
REMARK  181  A    between atoms: _432  and  _434
REMARK  182  A    between atoms: _434  and  _435
REMARK  183  A    between atoms: _434  and  _437
REMARK  184  A    between atoms: _437  and  _438
REMARK  185  A    between atoms: _438  and  _439
REMARK  186  A    between atoms: _441  and  _443
REMARK  187  A    between atoms: _443  and  _444
REMARK  188  A    between atoms: _443  and  _446
REMARK  189  A    between atoms: _446  and  _447
REMARK  190  A    between atoms: _450  and  _452
REMARK  191  A    between atoms: _452  and  _453
REMARK  192  A    between atoms: _455  and  _457
REMARK  193  A    between atoms: _457  and  _458
REMARK  194  A    between atoms: _460  and  _462
REMARK  195  A    between atoms: _462  and  _463
REMARK  196  A    between atoms: _462  and  _465
REMARK  197  A    between atoms: _465  and  _466
REMARK  198  A    between atoms: _469  and  _471
REMARK  199  A    between atoms: _471  and  _472
REMARK  200  A    between atoms: _474  and  _476
REMARK  201  A    between atoms: _476  and  _477
REMARK  202  A    between atoms: _479  and  _481
REMARK  203  A    between atoms: _481  and  _482
REMARK  204  A    between atoms: _481  and  _484
REMARK  205  A    between atoms: _484  and  _485
REMARK  206  A    between atoms: _491  and  _493
REMARK  207  A    between atoms: _493  and  _494
REMARK  208  A    between atoms: _493  and  _496
REMARK  209  A    between atoms: _496  and  _497
REMARK  210  A    between atoms: _500  and  _502
REMARK  211  A    between atoms: _502  and  _503
REMARK  212  A    between atoms: _502  and  _505
REMARK  213  A    between atoms: _508  and  _510
REMARK  214  A    between atoms: _510  and  _511
REMARK  215  A    between atoms: _510  and  _513
REMARK  216  A    between atoms: _513  and  _514
REMARK  217  A    between atoms: _517  and  _519
REMARK  218  A    between atoms: _519  and  _520
REMARK  219  A    between atoms: _519  and  _522
REMARK  220  A    between atoms: _522  and  _523
REMARK  221  A    between atoms: _527  and  _528
REMARK  222  A    between atoms: _533  and  _535
REMARK  223  A    between atoms: _535  and  _536
REMARK  224  A    between atoms: _535  and  _538
REMARK  225  A    between atoms: _541  and  _543
REMARK  226  A    between atoms: _543  and  _544
REMARK  227  A    between atoms: _543  and  _546
REMARK  228  A    between atoms: _546  and  _547
REMARK  229  A    between atoms: _552  and  _554
REMARK  230  A    between atoms: _554  and  _555
REMARK  231  A    between atoms: _554  and  _557
REMARK  232  A    between atoms: _557  and  _558
REMARK  233  A    between atoms: _561  and  _563
REMARK  234  A    between atoms: _563  and  _564
REMARK  235  A    between atoms: _563  and  _566
REMARK  236  A    between atoms: _566  and  _567
REMARK  237  A    between atoms: _570  and  _572
REMARK  238  A    between atoms: _572  and  _573
REMARK  239  A    between atoms: _575  and  _577
REMARK  240  A    between atoms: _577  and  _578
REMARK  241  A    between atoms: _577  and  _580
REMARK  242  A    between atoms: _580  and  _581
REMARK  243  A    between atoms: _581  and  _582
REMARK  244  A    between atoms: _582  and  _583
REMARK  245  A    between atoms: _592  and  _594
REMARK  246  A    between atoms: _594  and  _595
REMARK  247  A    between atoms: _594  and  _597
REMARK  248  A    between atoms: _597  and  _598
REMARK                            x       y       z     vdW  Elec       q    Type
REMARK                         _______ _______ _______ _____ _____    ______ ____
ROOT
ATOM      1  O   HOH     1      20.329  17.441  10.181  0.00  0.00    +0.000 OA
ENDROOT
TORSDOF 0
REMARK  Name = ../refined-set-2016/1d4h/1d4h_pocket.pdb
REMARK  248 active torsions:
REMARK  status: ('A' for Active; 'I' for Inactive)
REMARK    1  A    between atoms: _1  and  _3
REMARK    2  A    between atoms: _3  and  _4
REMARK    3  A    between atoms: _3  and  _6
REMARK    4  A    between atoms: _6  and  _7
REMARK    5  A    between atoms: _7  and  _8
REMARK    6  A    between atoms: _8  and  _9
REMARK    7  A    between atoms: _18  and  _20
REMARK    8  A    between atoms: _20  and  _21
REMARK    9  A    between atoms: _20  and  _23
REMARK   10  A    between atoms: _23  and  _24
REMARK   11  A    between atoms: _27  and  _29
REMARK   12  A    between atoms: _29  and  _30
REMARK   13  A    between atoms: _29  and  _32
REMARK   14  A    between atoms: _32  and  _33
REMARK   15  A    between atoms: _36  and  _38
REMARK   16  A    between atoms: _38  and  _39
REMARK   17  A    between atoms: _38  and  _41
REMARK   18  A    between atoms: _41  and  _42
REMARK   19  A    between atoms: _45  and  _47
REMARK   20  A    between atoms: _47  and  _48
REMARK   21  A    between atoms: _47  and  _50
REMARK   22  A    between atoms: _50  and  _51
REMARK   23  A    between atoms: _54  and  _56
REMARK   24  A    between atoms: _56  and  _57
REMARK   25  A    between atoms: _56  and  _59
REMARK   26  A    between atoms: _59  and  _60
REMARK   27  A    between atoms: _63  and  _65
REMARK   28  A    between atoms: _65  and  _66
REMARK   29  A    between atoms: _68  and  _70
REMARK   30  A    between atoms: _70  and  _71
REMARK   31  A    between atoms: _74  and  _76
REMARK   32  A    between atoms: _76  and  _77
REMARK   33  A    between atoms: _76  and  _79
REMARK   34  A    between atoms: _79  and  _80
REMARK   35  A    between atoms: _83  and  _85
REMARK   36  A    between atoms: _85  and  _86
REMARK   37  A    between atoms: _85  and  _88
REMARK   38  A    between atoms: _88  and  _89
REMARK   39  A    between atoms: _92  and  _94
REMARK   40  A    between atoms: _94  and  _95
REMARK   41  A    between atoms: _94  and  _97
REMARK   42  A    between atoms: _97  and  _98
REMARK   43  A    between atoms: _101  and  _103
REMARK   44  A    between atoms: _103  and  _104
REMARK   45  A    between atoms: _103  and  _106
REMARK   46  A    between atoms: _109  and  _111
REMARK   47  A    between atoms: _111  and  _112
REMARK   48  A    between atoms: _111  and  _114
REMARK   49  A    between atoms: _114  and  _115
REMARK   50  A    between atoms: _118  and  _120
REMARK   51  A    between atoms: _120  and  _121
REMARK   52  A    between atoms: _120  and  _123
REMARK   53  A    between atoms: _123  and  _124
REMARK   54  A    between atoms: _124  and  _125
REMARK   55  A    between atoms: _125  and  _126
REMARK   56  A    between atoms: _126  and  _127
REMARK   57  A    between atoms: _131  and  _133
REMARK   58  A    between atoms: _133  and  _134
REMARK   59  A    between atoms: _133  and  _136
REMARK   60  A    between atoms: _136  and  _137
REMARK   61  A    between atoms: _137  and  _138
REMARK   62  A    between atoms: _140  and  _142
REMARK   63  A    between atoms: _142  and  _143
REMARK   64  A    between atoms: _142  and  _145
REMARK   65  A    between atoms: _145  and  _146
REMARK   66  A    between atoms: _149  and  _151
REMARK   67  A    between atoms: _151  and  _152
REMARK   68  A    between atoms: _154  and  _156
REMARK   69  A    between atoms: _156  and  _157
REMARK   70  A    between atoms: _159  and  _161
REMARK   71  A    between atoms: _161  and  _162
REMARK   72  A    between atoms: _161  and  _164
REMARK   73  A    between atoms: _164  and  _165
REMARK   74  A    between atoms: _168  and  _170
REMARK   75  A    between atoms: _170  and  _171
REMARK   76  A    between atoms: _173  and  _175
REMARK   77  A    between atoms: _175  and  _176
REMARK   78  A    between atoms: _178  and  _180
REMARK   79  A    between atoms: _180  and  _181
REMARK   80  A    between atoms: _180  and  _183
REMARK   81  A    between atoms: _183  and  _184
REMARK   82  A    between atoms: _190  and  _192
REMARK   83  A    between atoms: _192  and  _193
REMARK   84  A    between atoms: _192  and  _195
REMARK   85  A    between atoms: _195  and  _196
REMARK   86  A    between atoms: _199  and  _201
REMARK   87  A    between atoms: _201  and  _202
REMARK   88  A    between atoms: _201  and  _204
REMARK   89  A    between atoms: _207  and  _209
REMARK   90  A    between atoms: _209  and  _210
REMARK   91  A    between atoms: _209  and  _212
REMARK   92  A    between atoms: _212  and  _213
REMARK   93  A    between atoms: _216  and  _218
REMARK   94  A    between atoms: _218  and  _219
REMARK   95  A    between atoms: _218  and  _221
REMARK   96  A    between atoms: _221  and  _222
REMARK   97  A    between atoms: _226  and  _227
REMARK   98  A    between atoms: _232  and  _234
REMARK   99  A    between atoms: _234  and  _235
REMARK  100  A    between atoms: _234  and  _237
REMARK  101  A    between atoms: _240  and  _242
REMARK  102  A    between atoms: _242  and  _243
REMARK  103  A    between atoms: _242  and  _245
REMARK  104  A    between atoms: _245  and  _246
REMARK  105  A    between atoms: _251  and  _253
REMARK  106  A    between atoms: _253  and  _254
REMARK  107  A    between atoms: _253  and  _256
REMARK  108  A    between atoms: _256  and  _257
REMARK  109  A    between atoms: _260  and  _262
REMARK  110  A    between atoms: _262  and  _263
REMARK  111  A    between atoms: _262  and  _265
REMARK  112  A    between atoms: _265  and  _266
REMARK  113  A    between atoms: _269  and  _271
REMARK  114  A    between atoms: _271  and  _272
REMARK  115  A    between atoms: _274  and  _276
REMARK  116  A    between atoms: _276  and  _277
REMARK  117  A    between atoms: _276  and  _279
REMARK  118  A    between atoms: _279  and  _280
REMARK  119  A    between atoms: _280  and  _281
REMARK  120  A    between atoms: _281  and  _282
REMARK  121  A    between atoms: _291  and  _293
REMARK  122  A    between atoms: _293  and  _294
REMARK  123  A    between atoms: _293  and  _296
REMARK  124  A    between atoms: _296  and  _297
REMARK  125  A    between atoms: _302  and  _304
REMARK  126  A    between atoms: _304  and  _305
REMARK  127  A    between atoms: _304  and  _307
REMARK  128  A    between atoms: _307  and  _308
REMARK  129  A    between atoms: _308  and  _309
REMARK  130  A    between atoms: _309  and  _310
REMARK  131  A    between atoms: _319  and  _321
REMARK  132  A    between atoms: _321  and  _322
REMARK  133  A    between atoms: _321  and  _324
REMARK  134  A    between atoms: _324  and  _325
REMARK  135  A    between atoms: _328  and  _330
REMARK  136  A    between atoms: _330  and  _331
REMARK  137  A    between atoms: _330  and  _333
REMARK  138  A    between atoms: _333  and  _334
REMARK  139  A    between atoms: _337  and  _339
REMARK  140  A    between atoms: _339  and  _340
REMARK  141  A    between atoms: _339  and  _342
REMARK  142  A    between atoms: _342  and  _343
REMARK  143  A    between atoms: _346  and  _348
REMARK  144  A    between atoms: _348  and  _349
REMARK  145  A    between atoms: _348  and  _351
REMARK  146  A    between atoms: _351  and  _352
REMARK  147  A    between atoms: _355  and  _357
REMARK  148  A    between atoms: _357  and  _358
REMARK  149  A    between atoms: _357  and  _360
REMARK  150  A    between atoms: _360  and  _361
REMARK  151  A    between atoms: _364  and  _366
REMARK  152  A    between atoms: _366  and  _367
REMARK  153  A    between atoms: _369  and  _371
REMARK  154  A    between atoms: _371  and  _372
REMARK  155  A    between atoms: _375  and  _377
REMARK  156  A    between atoms: _377  and  _378
REMARK  157  A    between atoms: _377  and  _380
REMARK  158  A    between atoms: _380  and  _381
REMARK  159  A    between atoms: _384  and  _386
REMARK  160  A    between atoms: _386  and  _387
REMARK  161  A    between atoms: _386  and  _389
REMARK  162  A    between atoms: _389  and  _390
REMARK  163  A    between atoms: _393  and  _395
REMARK  164  A    between atoms: _395  and  _396
REMARK  165  A    between atoms: _395  and  _398
REMARK  166  A    between atoms: _398  and  _399
REMARK  167  A    between atoms: _402  and  _404
REMARK  168  A    between atoms: _404  and  _405
REMARK  169  A    between atoms: _404  and  _407
REMARK  170  A    between atoms: _410  and  _412
REMARK  171  A    between atoms: _412  and  _413
REMARK  172  A    between atoms: _412  and  _415
REMARK  173  A    between atoms: _415  and  _416
REMARK  174  A    between atoms: _419  and  _421
REMARK  175  A    between atoms: _421  and  _422
REMARK  176  A    between atoms: _421  and  _424
REMARK  177  A    between atoms: _424  and  _425
REMARK  178  A    between atoms: _425  and  _426
REMARK  179  A    between atoms: _426  and  _427
REMARK  180  A    between atoms: _427  and  _428
REMARK  181  A    between atoms: _432  and  _434
REMARK  182  A    between atoms: _434  and  _435
REMARK  183  A    between atoms: _434  and  _437
REMARK  184  A    between atoms: _437  and  _438
REMARK  185  A    between atoms: _438  and  _439
REMARK  186  A    between atoms: _441  and  _443
REMARK  187  A    between atoms: _443  and  _444
REMARK  188  A    between atoms: _443  and  _446
REMARK  189  A    between atoms: _446  and  _447
REMARK  190  A    between atoms: _450  and  _452
REMARK  191  A    between atoms: _452  and  _453
REMARK  192  A    between atoms: _455  and  _457
REMARK  193  A    between atoms: _457  and  _458
REMARK  194  A    between atoms: _460  and  _462
REMARK  195  A    between atoms: _462  and  _463
REMARK  196  A    between atoms: _462  and  _465
REMARK  197  A    between atoms: _465  and  _466
REMARK  198  A    between atoms: _469  and  _471
REMARK  199  A    between atoms: _471  and  _472
REMARK  200  A    between atoms: _474  and  _476
REMARK  201  A    between atoms: _476  and  _477
REMARK  202  A    between atoms: _479  and  _481
REMARK  203  A    between atoms: _481  and  _482
REMARK  204  A    between atoms: _481  and  _484
REMARK  205  A    between atoms: _484  and  _485
REMARK  206  A    between atoms: _491  and  _493
REMARK  207  A    between atoms: _493  and  _494
REMARK  208  A    between atoms: _493  and  _496
REMARK  209  A    between atoms: _496  and  _497
REMARK  210  A    between atoms: _500  and  _502
REMARK  211  A    between atoms: _502  and  _503
REMARK  212  A    between atoms: _502  and  _505
REMARK  213  A    between atoms: _508  and  _510
REMARK  214  A    between atoms: _510  and  _511
REMARK  215  A    between atoms: _510  and  _513
REMARK  216  A    between atoms: _513  and  _514
REMARK  217  A    between atoms: _517  and  _519
REMARK  218  A    between atoms: _519  and  _520
REMARK  219  A    between atoms: _519  and  _522
REMARK  220  A    between atoms: _522  and  _523
REMARK  221  A    between atoms: _527  and  _528
REMARK  222  A    between atoms: _533  and  _535
REMARK  223  A    between atoms: _535  and  _536
REMARK  224  A    between atoms: _535  and  _538
REMARK  225  A    between atoms: _541  and  _543
REMARK  226  A    between atoms: _543  and  _544
REMARK  227  A    between atoms: _543  and  _546
REMARK  228  A    between atoms: _546  and  _547
REMARK  229  A    between atoms: _552  and  _554
REMARK  230  A    between atoms: _554  and  _555
REMARK  231  A    between atoms: _554  and  _557
REMARK  232  A    between atoms: _557  and  _558
REMARK  233  A    between atoms: _561  and  _563
REMARK  234  A    between atoms: _563  and  _564
REMARK  235  A    between atoms: _563  and  _566
REMARK  236  A    between atoms: _566  and  _567
REMARK  237  A    between atoms: _570  and  _572
REMARK  238  A    between atoms: _572  and  _573
REMARK  239  A    between atoms: _575  and  _577
REMARK  240  A    between atoms: _577  and  _578
REMARK  241  A    between atoms: _577  and  _580
REMARK  242  A    between atoms: _580  and  _581
REMARK  243  A    between atoms: _581  and  _582
REMARK  244  A    between atoms: _582  and  _583
REMARK  245  A    between atoms: _592  and  _594
REMARK  246  A    between atoms: _594  and  _595
REMARK  247  A    between atoms: _594  and  _597
REMARK  248  A    between atoms: _597  and  _598
REMARK                            x       y       z     vdW  Elec       q    Type
REMARK                         _______ _______ _______ _____ _____    ______ ____
ROOT
ATOM      1  O   HOH     1      20.331  21.325  16.551  0.00  0.00    +0.000 OA
ENDROOT
TORSDOF 0
REMARK  Name = ../refined-set-2016/1d4h/1d4h_pocket.pdb
REMARK  248 active torsions:
REMARK  status: ('A' for Active; 'I' for Inactive)
REMARK    1  A    between atoms: _1  and  _3
REMARK    2  A    between atoms: _3  and  _4
REMARK    3  A    between atoms: _3  and  _6
REMARK    4  A    between atoms: _6  and  _7
REMARK    5  A    between atoms: _7  and  _8
REMARK    6  A    between atoms: _8  and  _9
REMARK    7  A    between atoms: _18  and  _20
REMARK    8  A    between atoms: _20  and  _21
REMARK    9  A    between atoms: _20  and  _23
REMARK   10  A    between atoms: _23  and  _24
REMARK   11  A    between atoms: _27  and  _29
REMARK   12  A    between atoms: _29  and  _30
REMARK   13  A    between atoms: _29  and  _32
REMARK   14  A    between atoms: _32  and  _33
REMARK   15  A    between atoms: _36  and  _38
REMARK   16  A    between atoms: _38  and  _39
REMARK   17  A    between atoms: _38  and  _41
REMARK   18  A    between atoms: _41  and  _42
REMARK   19  A    between atoms: _45  and  _47
REMARK   20  A    between atoms: _47  and  _48
REMARK   21  A    between atoms: _47  and  _50
REMARK   22  A    between atoms: _50  and  _51
REMARK   23  A    between atoms: _54  and  _56
REMARK   24  A    between atoms: _56  and  _57
REMARK   25  A    between atoms: _56  and  _59
REMARK   26  A    between atoms: _59  and  _60
REMARK   27  A    between atoms: _63  and  _65
REMARK   28  A    between atoms: _65  and  _66
REMARK   29  A    between atoms: _68  and  _70
REMARK   30  A    between atoms: _70  and  _71
REMARK   31  A    between atoms: _74  and  _76
REMARK   32  A    between atoms: _76  and  _77
REMARK   33  A    between atoms: _76  and  _79
REMARK   34  A    between atoms: _79  and  _80
REMARK   35  A    between atoms: _83  and  _85
REMARK   36  A    between atoms: _85  and  _86
REMARK   37  A    between atoms: _85  and  _88
REMARK   38  A    between atoms: _88  and  _89
REMARK   39  A    between atoms: _92  and  _94
REMARK   40  A    between atoms: _94  and  _95
REMARK   41  A    between atoms: _94  and  _97
REMARK   42  A    between atoms: _97  and  _98
REMARK   43  A    between atoms: _101  and  _103
REMARK   44  A    between atoms: _103  and  _104
REMARK   45  A    between atoms: _103  and  _106
REMARK   46  A    between atoms: _109  and  _111
REMARK   47  A    between atoms: _111  and  _112
REMARK   48  A    between atoms: _111  and  _114
REMARK   49  A    between atoms: _114  and  _115
REMARK   50  A    between atoms: _118  and  _120
REMARK   51  A    between atoms: _120  and  _121
REMARK   52  A    between atoms: _120  and  _123
REMARK   53  A    between atoms: _123  and  _124
REMARK   54  A    between atoms: _124  and  _125
REMARK   55  A    between atoms: _125  and  _126
REMARK   56  A    between atoms: _126  and  _127
REMARK   57  A    between atoms: _131  and  _133
REMARK   58  A    between atoms: _133  and  _134
REMARK   59  A    between atoms: _133  and  _136
REMARK   60  A    between atoms: _136  and  _137
REMARK   61  A    between atoms: _137  and  _138
REMARK   62  A    between atoms: _140  and  _142
REMARK   63  A    between atoms: _142  and  _143
REMARK   64  A    between atoms: _142  and  _145
REMARK   65  A    between atoms: _145  and  _146
REMARK   66  A    between atoms: _149  and  _151
REMARK   67  A    between atoms: _151  and  _152
REMARK   68  A    between atoms: _154  and  _156
REMARK   69  A    between atoms: _156  and  _157
REMARK   70  A    between atoms: _159  and  _161
REMARK   71  A    between atoms: _161  and  _162
REMARK   72  A    between atoms: _161  and  _164
REMARK   73  A    between atoms: _164  and  _165
REMARK   74  A    between atoms: _168  and  _170
REMARK   75  A    between atoms: _170  and  _171
REMARK   76  A    between atoms: _173  and  _175
REMARK   77  A    between atoms: _175  and  _176
REMARK   78  A    between atoms: _178  and  _180
REMARK   79  A    between atoms: _180  and  _181
REMARK   80  A    between atoms: _180  and  _183
REMARK   81  A    between atoms: _183  and  _184
REMARK   82  A    between atoms: _190  and  _192
REMARK   83  A    between atoms: _192  and  _193
REMARK   84  A    between atoms: _192  and  _195
REMARK   85  A    between atoms: _195  and  _196
REMARK   86  A    between atoms: _199  and  _201
REMARK   87  A    between atoms: _201  and  _202
REMARK   88  A    between atoms: _201  and  _204
REMARK   89  A    between atoms: _207  and  _209
REMARK   90  A    between atoms: _209  and  _210
REMARK   91  A    between atoms: _209  and  _212
REMARK   92  A    between atoms: _212  and  _213
REMARK   93  A    between atoms: _216  and  _218
REMARK   94  A    between atoms: _218  and  _219
REMARK   95  A    between atoms: _218  and  _221
REMARK   96  A    between atoms: _221  and  _222
REMARK   97  A    between atoms: _226  and  _227
REMARK   98  A    between atoms: _232  and  _234
REMARK   99  A    between atoms: _234  and  _235
REMARK  100  A    between atoms: _234  and  _237
REMARK  101  A    between atoms: _240  and  _242
REMARK  102  A    between atoms: _242  and  _243
REMARK  103  A    between atoms: _242  and  _245
REMARK  104  A    between atoms: _245  and  _246
REMARK  105  A    between atoms: _251  and  _253
REMARK  106  A    between atoms: _253  and  _254
REMARK  107  A    between atoms: _253  and  _256
REMARK  108  A    between atoms: _256  and  _257
REMARK  109  A    between atoms: _260  and  _262
REMARK  110  A    between atoms: _262  and  _263
REMARK  111  A    between atoms: _262  and  _265
REMARK  112  A    between atoms: _265  and  _266
REMARK  113  A    between atoms: _269  and  _271
REMARK  114  A    between atoms: _271  and  _272
REMARK  115  A    between atoms: _274  and  _276
REMARK  116  A    between atoms: _276  and  _277
REMARK  117  A    between atoms: _276  and  _279
REMARK  118  A    between atoms: _279  and  _280
REMARK  119  A    between atoms: _280  and  _281
REMARK  120  A    between atoms: _281  and  _282
REMARK  121  A    between atoms: _291  and  _293
REMARK  122  A    between atoms: _293  and  _294
REMARK  123  A    between atoms: _293  and  _296
REMARK  124  A    between atoms: _296  and  _297
REMARK  125  A    between atoms: _302  and  _304
REMARK  126  A    between atoms: _304  and  _305
REMARK  127  A    between atoms: _304  and  _307
REMARK  128  A    between atoms: _307  and  _308
REMARK  129  A    between atoms: _308  and  _309
REMARK  130  A    between atoms: _309  and  _310
REMARK  131  A    between atoms: _319  and  _321
REMARK  132  A    between atoms: _321  and  _322
REMARK  133  A    between atoms: _321  and  _324
REMARK  134  A    between atoms: _324  and  _325
REMARK  135  A    between atoms: _328  and  _330
REMARK  136  A    between atoms: _330  and  _331
REMARK  137  A    between atoms: _330  and  _333
REMARK  138  A    between atoms: _333  and  _334
REMARK  139  A    between atoms: _337  and  _339
REMARK  140  A    between atoms: _339  and  _340
REMARK  141  A    between atoms: _339  and  _342
REMARK  142  A    between atoms: _342  and  _343
REMARK  143  A    between atoms: _346  and  _348
REMARK  144  A    between atoms: _348  and  _349
REMARK  145  A    between atoms: _348  and  _351
REMARK  146  A    between atoms: _351  and  _352
REMARK  147  A    between atoms: _355  and  _357
REMARK  148  A    between atoms: _357  and  _358
REMARK  149  A    between atoms: _357  and  _360
REMARK  150  A    between atoms: _360  and  _361
REMARK  151  A    between atoms: _364  and  _366
REMARK  152  A    between atoms: _366  and  _367
REMARK  153  A    between atoms: _369  and  _371
REMARK  154  A    between atoms: _371  and  _372
REMARK  155  A    between atoms: _375  and  _377
REMARK  156  A    between atoms: _377  and  _378
REMARK  157  A    between atoms: _377  and  _380
REMARK  158  A    between atoms: _380  and  _381
REMARK  159  A    between atoms: _384  and  _386
REMARK  160  A    between atoms: _386  and  _387
REMARK  161  A    between atoms: _386  and  _389
REMARK  162  A    between atoms: _389  and  _390
REMARK  163  A    between atoms: _393  and  _395
REMARK  164  A    between atoms: _395  and  _396
REMARK  165  A    between atoms: _395  and  _398
REMARK  166  A    between atoms: _398  and  _399
REMARK  167  A    between atoms: _402  and  _404
REMARK  168  A    between atoms: _404  and  _405
REMARK  169  A    between atoms: _404  and  _407
REMARK  170  A    between atoms: _410  and  _412
REMARK  171  A    between atoms: _412  and  _413
REMARK  172  A    between atoms: _412  and  _415
REMARK  173  A    between atoms: _415  and  _416
REMARK  174  A    between atoms: _419  and  _421
REMARK  175  A    between atoms: _421  and  _422
REMARK  176  A    between atoms: _421  and  _424
REMARK  177  A    between atoms: _424  and  _425
REMARK  178  A    between atoms: _425  and  _426
REMARK  179  A    between atoms: _426  and  _427
REMARK  180  A    between atoms: _427  and  _428
REMARK  181  A    between atoms: _432  and  _434
REMARK  182  A    between atoms: _434  and  _435
REMARK  183  A    between atoms: _434  and  _437
REMARK  184  A    between atoms: _437  and  _438
REMARK  185  A    between atoms: _438  and  _439
REMARK  186  A    between atoms: _441  and  _443
REMARK  187  A    between atoms: _443  and  _444
REMARK  188  A    between atoms: _443  and  _446
REMARK  189  A    between atoms: _446  and  _447
REMARK  190  A    between atoms: _450  and  _452
REMARK  191  A    between atoms: _452  and  _453
REMARK  192  A    between atoms: _455  and  _457
REMARK  193  A    between atoms: _457  and  _458
REMARK  194  A    between atoms: _460  and  _462
REMARK  195  A    between atoms: _462  and  _463
REMARK  196  A    between atoms: _462  and  _465
REMARK  197  A    between atoms: _465  and  _466
REMARK  198  A    between atoms: _469  and  _471
REMARK  199  A    between atoms: _471  and  _472
REMARK  200  A    between atoms: _474  and  _476
REMARK  201  A    between atoms: _476  and  _477
REMARK  202  A    between atoms: _479  and  _481
REMARK  203  A    between atoms: _481  and  _482
REMARK  204  A    between atoms: _481  and  _484
REMARK  205  A    between atoms: _484  and  _485
REMARK  206  A    between atoms: _491  and  _493
REMARK  207  A    between atoms: _493  and  _494
REMARK  208  A    between atoms: _493  and  _496
REMARK  209  A    between atoms: _496  and  _497
REMARK  210  A    between atoms: _500  and  _502
REMARK  211  A    between atoms: _502  and  _503
REMARK  212  A    between atoms: _502  and  _505
REMARK  213  A    between atoms: _508  and  _510
REMARK  214  A    between atoms: _510  and  _511
REMARK  215  A    between atoms: _510  and  _513
REMARK  216  A    between atoms: _513  and  _514
REMARK  217  A    between atoms: _517  and  _519
REMARK  218  A    between atoms: _519  and  _520
REMARK  219  A    between atoms: _519  and  _522
REMARK  220  A    between atoms: _522  and  _523
REMARK  221  A    between atoms: _527  and  _528
REMARK  222  A    between atoms: _533  and  _535
REMARK  223  A    between atoms: _535  and  _536
REMARK  224  A    between atoms: _535  and  _538
REMARK  225  A    between atoms: _541  and  _543
REMARK  226  A    between atoms: _543  and  _544
REMARK  227  A    between atoms: _543  and  _546
REMARK  228  A    between atoms: _546  and  _547
REMARK  229  A    between atoms: _552  and  _554
REMARK  230  A    between atoms: _554  and  _555
REMARK  231  A    between atoms: _554  and  _557
REMARK  232  A    between atoms: _557  and  _558
REMARK  233  A    between atoms: _561  and  _563
REMARK  234  A    between atoms: _563  and  _564
REMARK  235  A    between atoms: _563  and  _566
REMARK  236  A    between atoms: _566  and  _567
REMARK  237  A    between atoms: _570  and  _572
REMARK  238  A    between atoms: _572  and  _573
REMARK  239  A    between atoms: _575  and  _577
REMARK  240  A    between atoms: _577  and  _578
REMARK  241  A    between atoms: _577  and  _580
REMARK  242  A    between atoms: _580  and  _581
REMARK  243  A    between atoms: _581  and  _582
REMARK  244  A    between atoms: _582  and  _583
REMARK  245  A    between atoms: _592  and  _594
REMARK  246  A    between atoms: _594  and  _595
REMARK  247  A    between atoms: _594  and  _597
REMARK  248  A    between atoms: _597  and  _598
REMARK                            x       y       z     vdW  Elec       q    Type
REMARK                         _______ _______ _______ _____ _____    ______ ____
ROOT
ATOM      1  O   HOH     1       4.459  25.065   5.155  0.00  0.00    +0.000 OA
ENDROOT
TORSDOF 0
REMARK  Name = ../refined-set-2016/1d4h/1d4h_pocket.pdb
REMARK  248 active torsions:
REMARK  status: ('A' for Active; 'I' for Inactive)
REMARK    1  A    between atoms: _1  and  _3
REMARK    2  A    between atoms: _3  and  _4
REMARK    3  A    between atoms: _3  and  _6
REMARK    4  A    between atoms: _6  and  _7
REMARK    5  A    between atoms: _7  and  _8
REMARK    6  A    between atoms: _8  and  _9
REMARK    7  A    between atoms: _18  and  _20
REMARK    8  A    between atoms: _20  and  _21
REMARK    9  A    between atoms: _20  and  _23
REMARK   10  A    between atoms: _23  and  _24
REMARK   11  A    between atoms: _27  and  _29
REMARK   12  A    between atoms: _29  and  _30
REMARK   13  A    between atoms: _29  and  _32
REMARK   14  A    between atoms: _32  and  _33
REMARK   15  A    between atoms: _36  and  _38
REMARK   16  A    between atoms: _38  and  _39
REMARK   17  A    between atoms: _38  and  _41
REMARK   18  A    between atoms: _41  and  _42
REMARK   19  A    between atoms: _45  and  _47
REMARK   20  A    between atoms: _47  and  _48
REMARK   21  A    between atoms: _47  and  _50
REMARK   22  A    between atoms: _50  and  _51
REMARK   23  A    between atoms: _54  and  _56
REMARK   24  A    between atoms: _56  and  _57
REMARK   25  A    between atoms: _56  and  _59
REMARK   26  A    between atoms: _59  and  _60
REMARK   27  A    between atoms: _63  and  _65
REMARK   28  A    between atoms: _65  and  _66
REMARK   29  A    between atoms: _68  and  _70
REMARK   30  A    between atoms: _70  and  _71
REMARK   31  A    between atoms: _74  and  _76
REMARK   32  A    between atoms: _76  and  _77
REMARK   33  A    between atoms: _76  and  _79
REMARK   34  A    between atoms: _79  and  _80
REMARK   35  A    between atoms: _83  and  _85
REMARK   36  A    between atoms: _85  and  _86
REMARK   37  A    between atoms: _85  and  _88
REMARK   38  A    between atoms: _88  and  _89
REMARK   39  A    between atoms: _92  and  _94
REMARK   40  A    between atoms: _94  and  _95
REMARK   41  A    between atoms: _94  and  _97
REMARK   42  A    between atoms: _97  and  _98
REMARK   43  A    between atoms: _101  and  _103
REMARK   44  A    between atoms: _103  and  _104
REMARK   45  A    between atoms: _103  and  _106
REMARK   46  A    between atoms: _109  and  _111
REMARK   47  A    between atoms: _111  and  _112
REMARK   48  A    between atoms: _111  and  _114
REMARK   49  A    between atoms: _114  and  _115
REMARK   50  A    between atoms: _118  and  _120
REMARK   51  A    between atoms: _120  and  _121
REMARK   52  A    between atoms: _120  and  _123
REMARK   53  A    between atoms: _123  and  _124
REMARK   54  A    between atoms: _124  and  _125
REMARK   55  A    between atoms: _125  and  _126
REMARK   56  A    between atoms: _126  and  _127
REMARK   57  A    between atoms: _131  and  _133
REMARK   58  A    between atoms: _133  and  _134
REMARK   59  A    between atoms: _133  and  _136
REMARK   60  A    between atoms: _136  and  _137
REMARK   61  A    between atoms: _137  and  _138
REMARK   62  A    between atoms: _140  and  _142
REMARK   63  A    between atoms: _142  and  _143
REMARK   64  A    between atoms: _142  and  _145
REMARK   65  A    between atoms: _145  and  _146
REMARK   66  A    between atoms: _149  and  _151
REMARK   67  A    between atoms: _151  and  _152
REMARK   68  A    between atoms: _154  and  _156
REMARK   69  A    between atoms: _156  and  _157
REMARK   70  A    between atoms: _159  and  _161
REMARK   71  A    between atoms: _161  and  _162
REMARK   72  A    between atoms: _161  and  _164
REMARK   73  A    between atoms: _164  and  _165
REMARK   74  A    between atoms: _168  and  _170
REMARK   75  A    between atoms: _170  and  _171
REMARK   76  A    between atoms: _173  and  _175
REMARK   77  A    between atoms: _175  and  _176
REMARK   78  A    between atoms: _178  and  _180
REMARK   79  A    between atoms: _180  and  _181
REMARK   80  A    between atoms: _180  and  _183
REMARK   81  A    between atoms: _183  and  _184
REMARK   82  A    between atoms: _190  and  _192
REMARK   83  A    between atoms: _192  and  _193
REMARK   84  A    between atoms: _192  and  _195
REMARK   85  A    between atoms: _195  and  _196
REMARK   86  A    between atoms: _199  and  _201
REMARK   87  A    between atoms: _201  and  _202
REMARK   88  A    between atoms: _201  and  _204
REMARK   89  A    between atoms: _207  and  _209
REMARK   90  A    between atoms: _209  and  _210
REMARK   91  A    between atoms: _209  and  _212
REMARK   92  A    between atoms: _212  and  _213
REMARK   93  A    between atoms: _216  and  _218
REMARK   94  A    between atoms: _218  and  _219
REMARK   95  A    between atoms: _218  and  _221
REMARK   96  A    between atoms: _221  and  _222
REMARK   97  A    between atoms: _226  and  _227
REMARK   98  A    between atoms: _232  and  _234
REMARK   99  A    between atoms: _234  and  _235
REMARK  100  A    between atoms: _234  and  _237
REMARK  101  A    between atoms: _240  and  _242
REMARK  102  A    between atoms: _242  and  _243
REMARK  103  A    between atoms: _242  and  _245
REMARK  104  A    between atoms: _245  and  _246
REMARK  105  A    between atoms: _251  and  _253
REMARK  106  A    between atoms: _253  and  _254
REMARK  107  A    between atoms: _253  and  _256
REMARK  108  A    between atoms: _256  and  _257
REMARK  109  A    between atoms: _260  and  _262
REMARK  110  A    between atoms: _262  and  _263
REMARK  111  A    between atoms: _262  and  _265
REMARK  112  A    between atoms: _265  and  _266
REMARK  113  A    between atoms: _269  and  _271
REMARK  114  A    between atoms: _271  and  _272
REMARK  115  A    between atoms: _274  and  _276
REMARK  116  A    between atoms: _276  and  _277
REMARK  117  A    between atoms: _276  and  _279
REMARK  118  A    between atoms: _279  and  _280
REMARK  119  A    between atoms: _280  and  _281
REMARK  120  A    between atoms: _281  and  _282
REMARK  121  A    between atoms: _291  and  _293
REMARK  122  A    between atoms: _293  and  _294
REMARK  123  A    between atoms: _293  and  _296
REMARK  124  A    between atoms: _296  and  _297
REMARK  125  A    between atoms: _302  and  _304
REMARK  126  A    between atoms: _304  and  _305
REMARK  127  A    between atoms: _304  and  _307
REMARK  128  A    between atoms: _307  and  _308
REMARK  129  A    between atoms: _308  and  _309
REMARK  130  A    between atoms: _309  and  _310
REMARK  131  A    between atoms: _319  and  _321
REMARK  132  A    between atoms: _321  and  _322
REMARK  133  A    between atoms: _321  and  _324
REMARK  134  A    between atoms: _324  and  _325
REMARK  135  A    between atoms: _328  and  _330
REMARK  136  A    between atoms: _330  and  _331
REMARK  137  A    between atoms: _330  and  _333
REMARK  138  A    between atoms: _333  and  _334
REMARK  139  A    between atoms: _337  and  _339
REMARK  140  A    between atoms: _339  and  _340
REMARK  141  A    between atoms: _339  and  _342
REMARK  142  A    between atoms: _342  and  _343
REMARK  143  A    between atoms: _346  and  _348
REMARK  144  A    between atoms: _348  and  _349
REMARK  145  A    between atoms: _348  and  _351
REMARK  146  A    between atoms: _351  and  _352
REMARK  147  A    between atoms: _355  and  _357
REMARK  148  A    between atoms: _357  and  _358
REMARK  149  A    between atoms: _357  and  _360
REMARK  150  A    between atoms: _360  and  _361
REMARK  151  A    between atoms: _364  and  _366
REMARK  152  A    between atoms: _366  and  _367
REMARK  153  A    between atoms: _369  and  _371
REMARK  154  A    between atoms: _371  and  _372
REMARK  155  A    between atoms: _375  and  _377
REMARK  156  A    between atoms: _377  and  _378
REMARK  157  A    between atoms: _377  and  _380
REMARK  158  A    between atoms: _380  and  _381
REMARK  159  A    between atoms: _384  and  _386
REMARK  160  A    between atoms: _386  and  _387
REMARK  161  A    between atoms: _386  and  _389
REMARK  162  A    between atoms: _389  and  _390
REMARK  163  A    between atoms: _393  and  _395
REMARK  164  A    between atoms: _395  and  _396
REMARK  165  A    between atoms: _395  and  _398
REMARK  166  A    between atoms: _398  and  _399
REMARK  167  A    between atoms: _402  and  _404
REMARK  168  A    between atoms: _404  and  _405
REMARK  169  A    between atoms: _404  and  _407
REMARK  170  A    between atoms: _410  and  _412
REMARK  171  A    between atoms: _412  and  _413
REMARK  172  A    between atoms: _412  and  _415
REMARK  173  A    between atoms: _415  and  _416
REMARK  174  A    between atoms: _419  and  _421
REMARK  175  A    between atoms: _421  and  _422
REMARK  176  A    between atoms: _421  and  _424
REMARK  177  A    between atoms: _424  and  _425
REMARK  178  A    between atoms: _425  and  _426
REMARK  179  A    between atoms: _426  and  _427
REMARK  180  A    between atoms: _427  and  _428
REMARK  181  A    between atoms: _432  and  _434
REMARK  182  A    between atoms: _434  and  _435
REMARK  183  A    between atoms: _434  and  _437
REMARK  184  A    between atoms: _437  and  _438
REMARK  185  A    between atoms: _438  and  _439
REMARK  186  A    between atoms: _441  and  _443
REMARK  187  A    between atoms: _443  and  _444
REMARK  188  A    between atoms: _443  and  _446
REMARK  189  A    between atoms: _446  and  _447
REMARK  190  A    between atoms: _450  and  _452
REMARK  191  A    between atoms: _452  and  _453
REMARK  192  A    between atoms: _455  and  _457
REMARK  193  A    between atoms: _457  and  _458
REMARK  194  A    between atoms: _460  and  _462
REMARK  195  A    between atoms: _462  and  _463
REMARK  196  A    between atoms: _462  and  _465
REMARK  197  A    between atoms: _465  and  _466
REMARK  198  A    between atoms: _469  and  _471
REMARK  199  A    between atoms: _471  and  _472
REMARK  200  A    between atoms: _474  and  _476
REMARK  201  A    between atoms: _476  and  _477
REMARK  202  A    between atoms: _479  and  _481
REMARK  203  A    between atoms: _481  and  _482
REMARK  204  A    between atoms: _481  and  _484
REMARK  205  A    between atoms: _484  and  _485
REMARK  206  A    between atoms: _491  and  _493
REMARK  207  A    between atoms: _493  and  _494
REMARK  208  A    between atoms: _493  and  _496
REMARK  209  A    between atoms: _496  and  _497
REMARK  210  A    between atoms: _500  and  _502
REMARK  211  A    between atoms: _502  and  _503
REMARK  212  A    between atoms: _502  and  _505
REMARK  213  A    between atoms: _508  and  _510
REMARK  214  A    between atoms: _510  and  _511
REMARK  215  A    between atoms: _510  and  _513
REMARK  216  A    between atoms: _513  and  _514
REMARK  217  A    between atoms: _517  and  _519
REMARK  218  A    between atoms: _519  and  _520
REMARK  219  A    between atoms: _519  and  _522
REMARK  220  A    between atoms: _522  and  _523
REMARK  221  A    between atoms: _527  and  _528
REMARK  222  A    between atoms: _533  and  _535
REMARK  223  A    between atoms: _535  and  _536
REMARK  224  A    between atoms: _535  and  _538
REMARK  225  A    between atoms: _541  and  _543
REMARK  226  A    between atoms: _543  and  _544
REMARK  227  A    between atoms: _543  and  _546
REMARK  228  A    between atoms: _546  and  _547
REMARK  229  A    between atoms: _552  and  _554
REMARK  230  A    between atoms: _554  and  _555
REMARK  231  A    between atoms: _554  and  _557
REMARK  232  A    between atoms: _557  and  _558
REMARK  233  A    between atoms: _561  and  _563
REMARK  234  A    between atoms: _563  and  _564
REMARK  235  A    between atoms: _563  and  _566
REMARK  236  A    between atoms: _566  and  _567
REMARK  237  A    between atoms: _570  and  _572
REMARK  238  A    between atoms: _572  and  _573
REMARK  239  A    between atoms: _575  and  _577
REMARK  240  A    between atoms: _577  and  _578
REMARK  241  A    between atoms: _577  and  _580
REMARK  242  A    between atoms: _580  and  _581
REMARK  243  A    between atoms: _581  and  _582
REMARK  244  A    between atoms: _582  and  _583
REMARK  245  A    between atoms: _592  and  _594
REMARK  246  A    between atoms: _594  and  _595
REMARK  247  A    between atoms: _594  and  _597
REMARK  248  A    between atoms: _597  and  _598
REMARK                            x       y       z     vdW  Elec       q    Type
REMARK                         _______ _______ _______ _____ _____    ______ ____
ROOT
ATOM      1  O   HOH     1      11.461  21.027   6.572  0.00  0.00    +0.000 OA
ENDROOT
TORSDOF 0
REMARK  Name = ../refined-set-2016/1d4h/1d4h_pocket.pdb
REMARK  248 active torsions:
REMARK  status: ('A' for Active; 'I' for Inactive)
REMARK    1  A    between atoms: _1  and  _3
REMARK    2  A    between atoms: _3  and  _4
REMARK    3  A    between atoms: _3  and  _6
REMARK    4  A    between atoms: _6  and  _7
REMARK    5  A    between atoms: _7  and  _8
REMARK    6  A    between atoms: _8  and  _9
REMARK    7  A    between atoms: _18  and  _20
REMARK    8  A    between atoms: _20  and  _21
REMARK    9  A    between atoms: _20  and  _23
REMARK   10  A    between atoms: _23  and  _24
REMARK   11  A    between atoms: _27  and  _29
REMARK   12  A    between atoms: _29  and  _30
REMARK   13  A    between atoms: _29  and  _32
REMARK   14  A    between atoms: _32  and  _33
REMARK   15  A    between atoms: _36  and  _38
REMARK   16  A    between atoms: _38  and  _39
REMARK   17  A    between atoms: _38  and  _41
REMARK   18  A    between atoms: _41  and  _42
REMARK   19  A    between atoms: _45  and  _47
REMARK   20  A    between atoms: _47  and  _48
REMARK   21  A    between atoms: _47  and  _50
REMARK   22  A    between atoms: _50  and  _51
REMARK   23  A    between atoms: _54  and  _56
REMARK   24  A    between atoms: _56  and  _57
REMARK   25  A    between atoms: _56  and  _59
REMARK   26  A    between atoms: _59  and  _60
REMARK   27  A    between atoms: _63  and  _65
REMARK   28  A    between atoms: _65  and  _66
REMARK   29  A    between atoms: _68  and  _70
REMARK   30  A    between atoms: _70  and  _71
REMARK   31  A    between atoms: _74  and  _76
REMARK   32  A    between atoms: _76  and  _77
REMARK   33  A    between atoms: _76  and  _79
REMARK   34  A    between atoms: _79  and  _80
REMARK   35  A    between atoms: _83  and  _85
REMARK   36  A    between atoms: _85  and  _86
REMARK   37  A    between atoms: _85  and  _88
REMARK   38  A    between atoms: _88  and  _89
REMARK   39  A    between atoms: _92  and  _94
REMARK   40  A    between atoms: _94  and  _95
REMARK   41  A    between atoms: _94  and  _97
REMARK   42  A    between atoms: _97  and  _98
REMARK   43  A    between atoms: _101  and  _103
REMARK   44  A    between atoms: _103  and  _104
REMARK   45  A    between atoms: _103  and  _106
REMARK   46  A    between atoms: _109  and  _111
REMARK   47  A    between atoms: _111  and  _112
REMARK   48  A    between atoms: _111  and  _114
REMARK   49  A    between atoms: _114  and  _115
REMARK   50  A    between atoms: _118  and  _120
REMARK   51  A    between atoms: _120  and  _121
REMARK   52  A    between atoms: _120  and  _123
REMARK   53  A    between atoms: _123  and  _124
REMARK   54  A    between atoms: _124  and  _125
REMARK   55  A    between atoms: _125  and  _126
REMARK   56  A    between atoms: _126  and  _127
REMARK   57  A    between atoms: _131  and  _133
REMARK   58  A    between atoms: _133  and  _134
REMARK   59  A    between atoms: _133  and  _136
REMARK   60  A    between atoms: _136  and  _137
REMARK   61  A    between atoms: _137  and  _138
REMARK   62  A    between atoms: _140  and  _142
REMARK   63  A    between atoms: _142  and  _143
REMARK   64  A    between atoms: _142  and  _145
REMARK   65  A    between atoms: _145  and  _146
REMARK   66  A    between atoms: _149  and  _151
REMARK   67  A    between atoms: _151  and  _152
REMARK   68  A    between atoms: _154  and  _156
REMARK   69  A    between atoms: _156  and  _157
REMARK   70  A    between atoms: _159  and  _161
REMARK   71  A    between atoms: _161  and  _162
REMARK   72  A    between atoms: _161  and  _164
REMARK   73  A    between atoms: _164  and  _165
REMARK   74  A    between atoms: _168  and  _170
REMARK   75  A    between atoms: _170  and  _171
REMARK   76  A    between atoms: _173  and  _175
REMARK   77  A    between atoms: _175  and  _176
REMARK   78  A    between atoms: _178  and  _180
REMARK   79  A    between atoms: _180  and  _181
REMARK   80  A    between atoms: _180  and  _183
REMARK   81  A    between atoms: _183  and  _184
REMARK   82  A    between atoms: _190  and  _192
REMARK   83  A    between atoms: _192  and  _193
REMARK   84  A    between atoms: _192  and  _195
REMARK   85  A    between atoms: _195  and  _196
REMARK   86  A    between atoms: _199  and  _201
REMARK   87  A    between atoms: _201  and  _202
REMARK   88  A    between atoms: _201  and  _204
REMARK   89  A    between atoms: _207  and  _209
REMARK   90  A    between atoms: _209  and  _210
REMARK   91  A    between atoms: _209  and  _212
REMARK   92  A    between atoms: _212  and  _213
REMARK   93  A    between atoms: _216  and  _218
REMARK   94  A    between atoms: _218  and  _219
REMARK   95  A    between atoms: _218  and  _221
REMARK   96  A    between atoms: _221  and  _222
REMARK   97  A    between atoms: _226  and  _227
REMARK   98  A    between atoms: _232  and  _234
REMARK   99  A    between atoms: _234  and  _235
REMARK  100  A    between atoms: _234  and  _237
REMARK  101  A    between atoms: _240  and  _242
REMARK  102  A    between atoms: _242  and  _243
REMARK  103  A    between atoms: _242  and  _245
REMARK  104  A    between atoms: _245  and  _246
REMARK  105  A    between atoms: _251  and  _253
REMARK  106  A    between atoms: _253  and  _254
REMARK  107  A    between atoms: _253  and  _256
REMARK  108  A    between atoms: _256  and  _257
REMARK  109  A    between atoms: _260  and  _262
REMARK  110  A    between atoms: _262  and  _263
REMARK  111  A    between atoms: _262  and  _265
REMARK  112  A    between atoms: _265  and  _266
REMARK  113  A    between atoms: _269  and  _271
REMARK  114  A    between atoms: _271  and  _272
REMARK  115  A    between atoms: _274  and  _276
REMARK  116  A    between atoms: _276  and  _277
REMARK  117  A    between atoms: _276  and  _279
REMARK  118  A    between atoms: _279  and  _280
REMARK  119  A    between atoms: _280  and  _281
REMARK  120  A    between atoms: _281  and  _282
REMARK  121  A    between atoms: _291  and  _293
REMARK  122  A    between atoms: _293  and  _294
REMARK  123  A    between atoms: _293  and  _296
REMARK  124  A    between atoms: _296  and  _297
REMARK  125  A    between atoms: _302  and  _304
REMARK  126  A    between atoms: _304  and  _305
REMARK  127  A    between atoms: _304  and  _307
REMARK  128  A    between atoms: _307  and  _308
REMARK  129  A    between atoms: _308  and  _309
REMARK  130  A    between atoms: _309  and  _310
REMARK  131  A    between atoms: _319  and  _321
REMARK  132  A    between atoms: _321  and  _322
REMARK  133  A    between atoms: _321  and  _324
REMARK  134  A    between atoms: _324  and  _325
REMARK  135  A    between atoms: _328  and  _330
REMARK  136  A    between atoms: _330  and  _331
REMARK  137  A    between atoms: _330  and  _333
REMARK  138  A    between atoms: _333  and  _334
REMARK  139  A    between atoms: _337  and  _339
REMARK  140  A    between atoms: _339  and  _340
REMARK  141  A    between atoms: _339  and  _342
REMARK  142  A    between atoms: _342  and  _343
REMARK  143  A    between atoms: _346  and  _348
REMARK  144  A    between atoms: _348  and  _349
REMARK  145  A    between atoms: _348  and  _351
REMARK  146  A    between atoms: _351  and  _352
REMARK  147  A    between atoms: _355  and  _357
REMARK  148  A    between atoms: _357  and  _358
REMARK  149  A    between atoms: _357  and  _360
REMARK  150  A    between atoms: _360  and  _361
REMARK  151  A    between atoms: _364  and  _366
REMARK  152  A    between atoms: _366  and  _367
REMARK  153  A    between atoms: _369  and  _371
REMARK  154  A    between atoms: _371  and  _372
REMARK  155  A    between atoms: _375  and  _377
REMARK  156  A    between atoms: _377  and  _378
REMARK  157  A    between atoms: _377  and  _380
REMARK  158  A    between atoms: _380  and  _381
REMARK  159  A    between atoms: _384  and  _386
REMARK  160  A    between atoms: _386  and  _387
REMARK  161  A    between atoms: _386  and  _389
REMARK  162  A    between atoms: _389  and  _390
REMARK  163  A    between atoms: _393  and  _395
REMARK  164  A    between atoms: _395  and  _396
REMARK  165  A    between atoms: _395  and  _398
REMARK  166  A    between atoms: _398  and  _399
REMARK  167  A    between atoms: _402  and  _404
REMARK  168  A    between atoms: _404  and  _405
REMARK  169  A    between atoms: _404  and  _407
REMARK  170  A    between atoms: _410  and  _412
REMARK  171  A    between atoms: _412  and  _413
REMARK  172  A    between atoms: _412  and  _415
REMARK  173  A    between atoms: _415  and  _416
REMARK  174  A    between atoms: _419  and  _421
REMARK  175  A    between atoms: _421  and  _422
REMARK  176  A    between atoms: _421  and  _424
REMARK  177  A    between atoms: _424  and  _425
REMARK  178  A    between atoms: _425  and  _426
REMARK  179  A    between atoms: _426  and  _427
REMARK  180  A    between atoms: _427  and  _428
REMARK  181  A    between atoms: _432  and  _434
REMARK  182  A    between atoms: _434  and  _435
REMARK  183  A    between atoms: _434  and  _437
REMARK  184  A    between atoms: _437  and  _438
REMARK  185  A    between atoms: _438  and  _439
REMARK  186  A    between atoms: _441  and  _443
REMARK  187  A    between atoms: _443  and  _444
REMARK  188  A    between atoms: _443  and  _446
REMARK  189  A    between atoms: _446  and  _447
REMARK  190  A    between atoms: _450  and  _452
REMARK  191  A    between atoms: _452  and  _453
REMARK  192  A    between atoms: _455  and  _457
REMARK  193  A    between atoms: _457  and  _458
REMARK  194  A    between atoms: _460  and  _462
REMARK  195  A    between atoms: _462  and  _463
REMARK  196  A    between atoms: _462  and  _465
REMARK  197  A    between atoms: _465  and  _466
REMARK  198  A    between atoms: _469  and  _471
REMARK  199  A    between atoms: _471  and  _472
REMARK  200  A    between atoms: _474  and  _476
REMARK  201  A    between atoms: _476  and  _477
REMARK  202  A    between atoms: _479  and  _481
REMARK  203  A    between atoms: _481  and  _482
REMARK  204  A    between atoms: _481  and  _484
REMARK  205  A    between atoms: _484  and  _485
REMARK  206  A    between atoms: _491  and  _493
REMARK  207  A    between atoms: _493  and  _494
REMARK  208  A    between atoms: _493  and  _496
REMARK  209  A    between atoms: _496  and  _497
REMARK  210  A    between atoms: _500  and  _502
REMARK  211  A    between atoms: _502  and  _503
REMARK  212  A    between atoms: _502  and  _505
REMARK  213  A    between atoms: _508  and  _510
REMARK  214  A    between atoms: _510  and  _511
REMARK  215  A    between atoms: _510  and  _513
REMARK  216  A    between atoms: _513  and  _514
REMARK  217  A    between atoms: _517  and  _519
REMARK  218  A    between atoms: _519  and  _520
REMARK  219  A    between atoms: _519  and  _522
REMARK  220  A    between atoms: _522  and  _523
REMARK  221  A    between atoms: _527  and  _528
REMARK  222  A    between atoms: _533  and  _535
REMARK  223  A    between atoms: _535  and  _536
REMARK  224  A    between atoms: _535  and  _538
REMARK  225  A    between atoms: _541  and  _543
REMARK  226  A    between atoms: _543  and  _544
REMARK  227  A    between atoms: _543  and  _546
REMARK  228  A    between atoms: _546  and  _547
REMARK  229  A    between atoms: _552  and  _554
REMARK  230  A    between atoms: _554  and  _555
REMARK  231  A    between atoms: _554  and  _557
REMARK  232  A    between atoms: _557  and  _558
REMARK  233  A    between atoms: _561  and  _563
REMARK  234  A    between atoms: _563  and  _564
REMARK  235  A    between atoms: _563  and  _566
REMARK  236  A    between atoms: _566  and  _567
REMARK  237  A    between atoms: _570  and  _572
REMARK  238  A    between atoms: _572  and  _573
REMARK  239  A    between atoms: _575  and  _577
REMARK  240  A    between atoms: _577  and  _578
REMARK  241  A    between atoms: _577  and  _580
REMARK  242  A    between atoms: _580  and  _581
REMARK  243  A    between atoms: _581  and  _582
REMARK  244  A    between atoms: _582  and  _583
REMARK  245  A    between atoms: _592  and  _594
REMARK  246  A    between atoms: _594  and  _595
REMARK  247  A    between atoms: _594  and  _597
REMARK  248  A    between atoms: _597  and  _598
REMARK                            x       y       z     vdW  Elec       q    Type
REMARK                         _______ _______ _______ _____ _____    ______ ____
ROOT
ATOM      1  O   HOH     1      21.838  23.791   4.853  0.00  0.00    +0.000 OA
ENDROOT
TORSDOF 0
REMARK  Name = ../refined-set-2016/1d4h/1d4h_pocket.pdb
REMARK  248 active torsions:
REMARK  status: ('A' for Active; 'I' for Inactive)
REMARK    1  A    between atoms: _1  and  _3
REMARK    2  A    between atoms: _3  and  _4
REMARK    3  A    between atoms: _3  and  _6
REMARK    4  A    between atoms: _6  and  _7
REMARK    5  A    between atoms: _7  and  _8
REMARK    6  A    between atoms: _8  and  _9
REMARK    7  A    between atoms: _18  and  _20
REMARK    8  A    between atoms: _20  and  _21
REMARK    9  A    between atoms: _20  and  _23
REMARK   10  A    between atoms: _23  and  _24
REMARK   11  A    between atoms: _27  and  _29
REMARK   12  A    between atoms: _29  and  _30
REMARK   13  A    between atoms: _29  and  _32
REMARK   14  A    between atoms: _32  and  _33
REMARK   15  A    between atoms: _36  and  _38
REMARK   16  A    between atoms: _38  and  _39
REMARK   17  A    between atoms: _38  and  _41
REMARK   18  A    between atoms: _41  and  _42
REMARK   19  A    between atoms: _45  and  _47
REMARK   20  A    between atoms: _47  and  _48
REMARK   21  A    between atoms: _47  and  _50
REMARK   22  A    between atoms: _50  and  _51
REMARK   23  A    between atoms: _54  and  _56
REMARK   24  A    between atoms: _56  and  _57
REMARK   25  A    between atoms: _56  and  _59
REMARK   26  A    between atoms: _59  and  _60
REMARK   27  A    between atoms: _63  and  _65
REMARK   28  A    between atoms: _65  and  _66
REMARK   29  A    between atoms: _68  and  _70
REMARK   30  A    between atoms: _70  and  _71
REMARK   31  A    between atoms: _74  and  _76
REMARK   32  A    between atoms: _76  and  _77
REMARK   33  A    between atoms: _76  and  _79
REMARK   34  A    between atoms: _79  and  _80
REMARK   35  A    between atoms: _83  and  _85
REMARK   36  A    between atoms: _85  and  _86
REMARK   37  A    between atoms: _85  and  _88
REMARK   38  A    between atoms: _88  and  _89
REMARK   39  A    between atoms: _92  and  _94
REMARK   40  A    between atoms: _94  and  _95
REMARK   41  A    between atoms: _94  and  _97
REMARK   42  A    between atoms: _97  and  _98
REMARK   43  A    between atoms: _101  and  _103
REMARK   44  A    between atoms: _103  and  _104
REMARK   45  A    between atoms: _103  and  _106
REMARK   46  A    between atoms: _109  and  _111
REMARK   47  A    between atoms: _111  and  _112
REMARK   48  A    between atoms: _111  and  _114
REMARK   49  A    between atoms: _114  and  _115
REMARK   50  A    between atoms: _118  and  _120
REMARK   51  A    between atoms: _120  and  _121
REMARK   52  A    between atoms: _120  and  _123
REMARK   53  A    between atoms: _123  and  _124
REMARK   54  A    between atoms: _124  and  _125
REMARK   55  A    between atoms: _125  and  _126
REMARK   56  A    between atoms: _126  and  _127
REMARK   57  A    between atoms: _131  and  _133
REMARK   58  A    between atoms: _133  and  _134
REMARK   59  A    between atoms: _133  and  _136
REMARK   60  A    between atoms: _136  and  _137
REMARK   61  A    between atoms: _137  and  _138
REMARK   62  A    between atoms: _140  and  _142
REMARK   63  A    between atoms: _142  and  _143
REMARK   64  A    between atoms: _142  and  _145
REMARK   65  A    between atoms: _145  and  _146
REMARK   66  A    between atoms: _149  and  _151
REMARK   67  A    between atoms: _151  and  _152
REMARK   68  A    between atoms: _154  and  _156
REMARK   69  A    between atoms: _156  and  _157
REMARK   70  A    between atoms: _159  and  _161
REMARK   71  A    between atoms: _161  and  _162
REMARK   72  A    between atoms: _161  and  _164
REMARK   73  A    between atoms: _164  and  _165
REMARK   74  A    between atoms: _168  and  _170
REMARK   75  A    between atoms: _170  and  _171
REMARK   76  A    between atoms: _173  and  _175
REMARK   77  A    between atoms: _175  and  _176
REMARK   78  A    between atoms: _178  and  _180
REMARK   79  A    between atoms: _180  and  _181
REMARK   80  A    between atoms: _180  and  _183
REMARK   81  A    between atoms: _183  and  _184
REMARK   82  A    between atoms: _190  and  _192
REMARK   83  A    between atoms: _192  and  _193
REMARK   84  A    between atoms: _192  and  _195
REMARK   85  A    between atoms: _195  and  _196
REMARK   86  A    between atoms: _199  and  _201
REMARK   87  A    between atoms: _201  and  _202
REMARK   88  A    between atoms: _201  and  _204
REMARK   89  A    between atoms: _207  and  _209
REMARK   90  A    between atoms: _209  and  _210
REMARK   91  A    between atoms: _209  and  _212
REMARK   92  A    between atoms: _212  and  _213
REMARK   93  A    between atoms: _216  and  _218
REMARK   94  A    between atoms: _218  and  _219
REMARK   95  A    between atoms: _218  and  _221
REMARK   96  A    between atoms: _221  and  _222
REMARK   97  A    between atoms: _226  and  _227
REMARK   98  A    between atoms: _232  and  _234
REMARK   99  A    between atoms: _234  and  _235
REMARK  100  A    between atoms: _234  and  _237
REMARK  101  A    between atoms: _240  and  _242
REMARK  102  A    between atoms: _242  and  _243
REMARK  103  A    between atoms: _242  and  _245
REMARK  104  A    between atoms: _245  and  _246
REMARK  105  A    between atoms: _251  and  _253
REMARK  106  A    between atoms: _253  and  _254
REMARK  107  A    between atoms: _253  and  _256
REMARK  108  A    between atoms: _256  and  _257
REMARK  109  A    between atoms: _260  and  _262
REMARK  110  A    between atoms: _262  and  _263
REMARK  111  A    between atoms: _262  and  _265
REMARK  112  A    between atoms: _265  and  _266
REMARK  113  A    between atoms: _269  and  _271
REMARK  114  A    between atoms: _271  and  _272
REMARK  115  A    between atoms: _274  and  _276
REMARK  116  A    between atoms: _276  and  _277
REMARK  117  A    between atoms: _276  and  _279
REMARK  118  A    between atoms: _279  and  _280
REMARK  119  A    between atoms: _280  and  _281
REMARK  120  A    between atoms: _281  and  _282
REMARK  121  A    between atoms: _291  and  _293
REMARK  122  A    between atoms: _293  and  _294
REMARK  123  A    between atoms: _293  and  _296
REMARK  124  A    between atoms: _296  and  _297
REMARK  125  A    between atoms: _302  and  _304
REMARK  126  A    between atoms: _304  and  _305
REMARK  127  A    between atoms: _304  and  _307
REMARK  128  A    between atoms: _307  and  _308
REMARK  129  A    between atoms: _308  and  _309
REMARK  130  A    between atoms: _309  and  _310
REMARK  131  A    between atoms: _319  and  _321
REMARK  132  A    between atoms: _321  and  _322
REMARK  133  A    between atoms: _321  and  _324
REMARK  134  A    between atoms: _324  and  _325
REMARK  135  A    between atoms: _328  and  _330
REMARK  136  A    between atoms: _330  and  _331
REMARK  137  A    between atoms: _330  and  _333
REMARK  138  A    between atoms: _333  and  _334
REMARK  139  A    between atoms: _337  and  _339
REMARK  140  A    between atoms: _339  and  _340
REMARK  141  A    between atoms: _339  and  _342
REMARK  142  A    between atoms: _342  and  _343
REMARK  143  A    between atoms: _346  and  _348
REMARK  144  A    between atoms: _348  and  _349
REMARK  145  A    between atoms: _348  and  _351
REMARK  146  A    between atoms: _351  and  _352
REMARK  147  A    between atoms: _355  and  _357
REMARK  148  A    between atoms: _357  and  _358
REMARK  149  A    between atoms: _357  and  _360
REMARK  150  A    between atoms: _360  and  _361
REMARK  151  A    between atoms: _364  and  _366
REMARK  152  A    between atoms: _366  and  _367
REMARK  153  A    between atoms: _369  and  _371
REMARK  154  A    between atoms: _371  and  _372
REMARK  155  A    between atoms: _375  and  _377
REMARK  156  A    between atoms: _377  and  _378
REMARK  157  A    between atoms: _377  and  _380
REMARK  158  A    between atoms: _380  and  _381
REMARK  159  A    between atoms: _384  and  _386
REMARK  160  A    between atoms: _386  and  _387
REMARK  161  A    between atoms: _386  and  _389
REMARK  162  A    between atoms: _389  and  _390
REMARK  163  A    between atoms: _393  and  _395
REMARK  164  A    between atoms: _395  and  _396
REMARK  165  A    between atoms: _395  and  _398
REMARK  166  A    between atoms: _398  and  _399
REMARK  167  A    between atoms: _402  and  _404
REMARK  168  A    between atoms: _404  and  _405
REMARK  169  A    between atoms: _404  and  _407
REMARK  170  A    between atoms: _410  and  _412
REMARK  171  A    between atoms: _412  and  _413
REMARK  172  A    between atoms: _412  and  _415
REMARK  173  A    between atoms: _415  and  _416
REMARK  174  A    between atoms: _419  and  _421
REMARK  175  A    between atoms: _421  and  _422
REMARK  176  A    between atoms: _421  and  _424
REMARK  177  A    between atoms: _424  and  _425
REMARK  178  A    between atoms: _425  and  _426
REMARK  179  A    between atoms: _426  and  _427
REMARK  180  A    between atoms: _427  and  _428
REMARK  181  A    between atoms: _432  and  _434
REMARK  182  A    between atoms: _434  and  _435
REMARK  183  A    between atoms: _434  and  _437
REMARK  184  A    between atoms: _437  and  _438
REMARK  185  A    between atoms: _438  and  _439
REMARK  186  A    between atoms: _441  and  _443
REMARK  187  A    between atoms: _443  and  _444
REMARK  188  A    between atoms: _443  and  _446
REMARK  189  A    between atoms: _446  and  _447
REMARK  190  A    between atoms: _450  and  _452
REMARK  191  A    between atoms: _452  and  _453
REMARK  192  A    between atoms: _455  and  _457
REMARK  193  A    between atoms: _457  and  _458
REMARK  194  A    between atoms: _460  and  _462
REMARK  195  A    between atoms: _462  and  _463
REMARK  196  A    between atoms: _462  and  _465
REMARK  197  A    between atoms: _465  and  _466
REMARK  198  A    between atoms: _469  and  _471
REMARK  199  A    between atoms: _471  and  _472
REMARK  200  A    between atoms: _474  and  _476
REMARK  201  A    between atoms: _476  and  _477
REMARK  202  A    between atoms: _479  and  _481
REMARK  203  A    between atoms: _481  and  _482
REMARK  204  A    between atoms: _481  and  _484
REMARK  205  A    between atoms: _484  and  _485
REMARK  206  A    between atoms: _491  and  _493
REMARK  207  A    between atoms: _493  and  _494
REMARK  208  A    between atoms: _493  and  _496
REMARK  209  A    between atoms: _496  and  _497
REMARK  210  A    between atoms: _500  and  _502
REMARK  211  A    between atoms: _502  and  _503
REMARK  212  A    between atoms: _502  and  _505
REMARK  213  A    between atoms: _508  and  _510
REMARK  214  A    between atoms: _510  and  _511
REMARK  215  A    between atoms: _510  and  _513
REMARK  216  A    between atoms: _513  and  _514
REMARK  217  A    between atoms: _517  and  _519
REMARK  218  A    between atoms: _519  and  _520
REMARK  219  A    between atoms: _519  and  _522
REMARK  220  A    between atoms: _522  and  _523
REMARK  221  A    between atoms: _527  and  _528
REMARK  222  A    between atoms: _533  and  _535
REMARK  223  A    between atoms: _535  and  _536
REMARK  224  A    between atoms: _535  and  _538
REMARK  225  A    between atoms: _541  and  _543
REMARK  226  A    between atoms: _543  and  _544
REMARK  227  A    between atoms: _543  and  _546
REMARK  228  A    between atoms: _546  and  _547
REMARK  229  A    between atoms: _552  and  _554
REMARK  230  A    between atoms: _554  and  _555
REMARK  231  A    between atoms: _554  and  _557
REMARK  232  A    between atoms: _557  and  _558
REMARK  233  A    between atoms: _561  and  _563
REMARK  234  A    between atoms: _563  and  _564
REMARK  235  A    between atoms: _563  and  _566
REMARK  236  A    between atoms: _566  and  _567
REMARK  237  A    between atoms: _570  and  _572
REMARK  238  A    between atoms: _572  and  _573
REMARK  239  A    between atoms: _575  and  _577
REMARK  240  A    between atoms: _577  and  _578
REMARK  241  A    between atoms: _577  and  _580
REMARK  242  A    between atoms: _580  and  _581
REMARK  243  A    between atoms: _581  and  _582
REMARK  244  A    between atoms: _582  and  _583
REMARK  245  A    between atoms: _592  and  _594
REMARK  246  A    between atoms: _594  and  _595
REMARK  247  A    between atoms: _594  and  _597
REMARK  248  A    between atoms: _597  and  _598
REMARK                            x       y       z     vdW  Elec       q    Type
REMARK                         _______ _______ _______ _____ _____    ______ ____
ROOT
ATOM      1  O   HOH     1      20.337  16.103  -3.768  0.00  0.00    +0.000 OA
ENDROOT
TORSDOF 0
REMARK  Name = ../refined-set-2016/1d4h/1d4h_pocket.pdb
REMARK  248 active torsions:
REMARK  status: ('A' for Active; 'I' for Inactive)
REMARK    1  A    between atoms: _1  and  _3
REMARK    2  A    between atoms: _3  and  _4
REMARK    3  A    between atoms: _3  and  _6
REMARK    4  A    between atoms: _6  and  _7
REMARK    5  A    between atoms: _7  and  _8
REMARK    6  A    between atoms: _8  and  _9
REMARK    7  A    between atoms: _18  and  _20
REMARK    8  A    between atoms: _20  and  _21
REMARK    9  A    between atoms: _20  and  _23
REMARK   10  A    between atoms: _23  and  _24
REMARK   11  A    between atoms: _27  and  _29
REMARK   12  A    between atoms: _29  and  _30
REMARK   13  A    between atoms: _29  and  _32
REMARK   14  A    between atoms: _32  and  _33
REMARK   15  A    between atoms: _36  and  _38
REMARK   16  A    between atoms: _38  and  _39
REMARK   17  A    between atoms: _38  and  _41
REMARK   18  A    between atoms: _41  and  _42
REMARK   19  A    between atoms: _45  and  _47
REMARK   20  A    between atoms: _47  and  _48
REMARK   21  A    between atoms: _47  and  _50
REMARK   22  A    between atoms: _50  and  _51
REMARK   23  A    between atoms: _54  and  _56
REMARK   24  A    between atoms: _56  and  _57
REMARK   25  A    between atoms: _56  and  _59
REMARK   26  A    between atoms: _59  and  _60
REMARK   27  A    between atoms: _63  and  _65
REMARK   28  A    between atoms: _65  and  _66
REMARK   29  A    between atoms: _68  and  _70
REMARK   30  A    between atoms: _70  and  _71
REMARK   31  A    between atoms: _74  and  _76
REMARK   32  A    between atoms: _76  and  _77
REMARK   33  A    between atoms: _76  and  _79
REMARK   34  A    between atoms: _79  and  _80
REMARK   35  A    between atoms: _83  and  _85
REMARK   36  A    between atoms: _85  and  _86
REMARK   37  A    between atoms: _85  and  _88
REMARK   38  A    between atoms: _88  and  _89
REMARK   39  A    between atoms: _92  and  _94
REMARK   40  A    between atoms: _94  and  _95
REMARK   41  A    between atoms: _94  and  _97
REMARK   42  A    between atoms: _97  and  _98
REMARK   43  A    between atoms: _101  and  _103
REMARK   44  A    between atoms: _103  and  _104
REMARK   45  A    between atoms: _103  and  _106
REMARK   46  A    between atoms: _109  and  _111
REMARK   47  A    between atoms: _111  and  _112
REMARK   48  A    between atoms: _111  and  _114
REMARK   49  A    between atoms: _114  and  _115
REMARK   50  A    between atoms: _118  and  _120
REMARK   51  A    between atoms: _120  and  _121
REMARK   52  A    between atoms: _120  and  _123
REMARK   53  A    between atoms: _123  and  _124
REMARK   54  A    between atoms: _124  and  _125
REMARK   55  A    between atoms: _125  and  _126
REMARK   56  A    between atoms: _126  and  _127
REMARK   57  A    between atoms: _131  and  _133
REMARK   58  A    between atoms: _133  and  _134
REMARK   59  A    between atoms: _133  and  _136
REMARK   60  A    between atoms: _136  and  _137
REMARK   61  A    between atoms: _137  and  _138
REMARK   62  A    between atoms: _140  and  _142
REMARK   63  A    between atoms: _142  and  _143
REMARK   64  A    between atoms: _142  and  _145
REMARK   65  A    between atoms: _145  and  _146
REMARK   66  A    between atoms: _149  and  _151
REMARK   67  A    between atoms: _151  and  _152
REMARK   68  A    between atoms: _154  and  _156
REMARK   69  A    between atoms: _156  and  _157
REMARK   70  A    between atoms: _159  and  _161
REMARK   71  A    between atoms: _161  and  _162
REMARK   72  A    between atoms: _161  and  _164
REMARK   73  A    between atoms: _164  and  _165
REMARK   74  A    between atoms: _168  and  _170
REMARK   75  A    between atoms: _170  and  _171
REMARK   76  A    between atoms: _173  and  _175
REMARK   77  A    between atoms: _175  and  _176
REMARK   78  A    between atoms: _178  and  _180
REMARK   79  A    between atoms: _180  and  _181
REMARK   80  A    between atoms: _180  and  _183
REMARK   81  A    between atoms: _183  and  _184
REMARK   82  A    between atoms: _190  and  _192
REMARK   83  A    between atoms: _192  and  _193
REMARK   84  A    between atoms: _192  and  _195
REMARK   85  A    between atoms: _195  and  _196
REMARK   86  A    between atoms: _199  and  _201
REMARK   87  A    between atoms: _201  and  _202
REMARK   88  A    between atoms: _201  and  _204
REMARK   89  A    between atoms: _207  and  _209
REMARK   90  A    between atoms: _209  and  _210
REMARK   91  A    between atoms: _209  and  _212
REMARK   92  A    between atoms: _212  and  _213
REMARK   93  A    between atoms: _216  and  _218
REMARK   94  A    between atoms: _218  and  _219
REMARK   95  A    between atoms: _218  and  _221
REMARK   96  A    between atoms: _221  and  _222
REMARK   97  A    between atoms: _226  and  _227
REMARK   98  A    between atoms: _232  and  _234
REMARK   99  A    between atoms: _234  and  _235
REMARK  100  A    between atoms: _234  and  _237
REMARK  101  A    between atoms: _240  and  _242
REMARK  102  A    between atoms: _242  and  _243
REMARK  103  A    between atoms: _242  and  _245
REMARK  104  A    between atoms: _245  and  _246
REMARK  105  A    between atoms: _251  and  _253
REMARK  106  A    between atoms: _253  and  _254
REMARK  107  A    between atoms: _253  and  _256
REMARK  108  A    between atoms: _256  and  _257
REMARK  109  A    between atoms: _260  and  _262
REMARK  110  A    between atoms: _262  and  _263
REMARK  111  A    between atoms: _262  and  _265
REMARK  112  A    between atoms: _265  and  _266
REMARK  113  A    between atoms: _269  and  _271
REMARK  114  A    between atoms: _271  and  _272
REMARK  115  A    between atoms: _274  and  _276
REMARK  116  A    between atoms: _276  and  _277
REMARK  117  A    between atoms: _276  and  _279
REMARK  118  A    between atoms: _279  and  _280
REMARK  119  A    between atoms: _280  and  _281
REMARK  120  A    between atoms: _281  and  _282
REMARK  121  A    between atoms: _291  and  _293
REMARK  122  A    between atoms: _293  and  _294
REMARK  123  A    between atoms: _293  and  _296
REMARK  124  A    between atoms: _296  and  _297
REMARK  125  A    between atoms: _302  and  _304
REMARK  126  A    between atoms: _304  and  _305
REMARK  127  A    between atoms: _304  and  _307
REMARK  128  A    between atoms: _307  and  _308
REMARK  129  A    between atoms: _308  and  _309
REMARK  130  A    between atoms: _309  and  _310
REMARK  131  A    between atoms: _319  and  _321
REMARK  132  A    between atoms: _321  and  _322
REMARK  133  A    between atoms: _321  and  _324
REMARK  134  A    between atoms: _324  and  _325
REMARK  135  A    between atoms: _328  and  _330
REMARK  136  A    between atoms: _330  and  _331
REMARK  137  A    between atoms: _330  and  _333
REMARK  138  A    between atoms: _333  and  _334
REMARK  139  A    between atoms: _337  and  _339
REMARK  140  A    between atoms: _339  and  _340
REMARK  141  A    between atoms: _339  and  _342
REMARK  142  A    between atoms: _342  and  _343
REMARK  143  A    between atoms: _346  and  _348
REMARK  144  A    between atoms: _348  and  _349
REMARK  145  A    between atoms: _348  and  _351
REMARK  146  A    between atoms: _351  and  _352
REMARK  147  A    between atoms: _355  and  _357
REMARK  148  A    between atoms: _357  and  _358
REMARK  149  A    between atoms: _357  and  _360
REMARK  150  A    between atoms: _360  and  _361
REMARK  151  A    between atoms: _364  and  _366
REMARK  152  A    between atoms: _366  and  _367
REMARK  153  A    between atoms: _369  and  _371
REMARK  154  A    between atoms: _371  and  _372
REMARK  155  A    between atoms: _375  and  _377
REMARK  156  A    between atoms: _377  and  _378
REMARK  157  A    between atoms: _377  and  _380
REMARK  158  A    between atoms: _380  and  _381
REMARK  159  A    between atoms: _384  and  _386
REMARK  160  A    between atoms: _386  and  _387
REMARK  161  A    between atoms: _386  and  _389
REMARK  162  A    between atoms: _389  and  _390
REMARK  163  A    between atoms: _393  and  _395
REMARK  164  A    between atoms: _395  and  _396
REMARK  165  A    between atoms: _395  and  _398
REMARK  166  A    between atoms: _398  and  _399
REMARK  167  A    between atoms: _402  and  _404
REMARK  168  A    between atoms: _404  and  _405
REMARK  169  A    between atoms: _404  and  _407
REMARK  170  A    between atoms: _410  and  _412
REMARK  171  A    between atoms: _412  and  _413
REMARK  172  A    between atoms: _412  and  _415
REMARK  173  A    between atoms: _415  and  _416
REMARK  174  A    between atoms: _419  and  _421
REMARK  175  A    between atoms: _421  and  _422
REMARK  176  A    between atoms: _421  and  _424
REMARK  177  A    between atoms: _424  and  _425
REMARK  178  A    between atoms: _425  and  _426
REMARK  179  A    between atoms: _426  and  _427
REMARK  180  A    between atoms: _427  and  _428
REMARK  181  A    between atoms: _432  and  _434
REMARK  182  A    between atoms: _434  and  _435
REMARK  183  A    between atoms: _434  and  _437
REMARK  184  A    between atoms: _437  and  _438
REMARK  185  A    between atoms: _438  and  _439
REMARK  186  A    between atoms: _441  and  _443
REMARK  187  A    between atoms: _443  and  _444
REMARK  188  A    between atoms: _443  and  _446
REMARK  189  A    between atoms: _446  and  _447
REMARK  190  A    between atoms: _450  and  _452
REMARK  191  A    between atoms: _452  and  _453
REMARK  192  A    between atoms: _455  and  _457
REMARK  193  A    between atoms: _457  and  _458
REMARK  194  A    between atoms: _460  and  _462
REMARK  195  A    between atoms: _462  and  _463
REMARK  196  A    between atoms: _462  and  _465
REMARK  197  A    between atoms: _465  and  _466
REMARK  198  A    between atoms: _469  and  _471
REMARK  199  A    between atoms: _471  and  _472
REMARK  200  A    between atoms: _474  and  _476
REMARK  201  A    between atoms: _476  and  _477
REMARK  202  A    between atoms: _479  and  _481
REMARK  203  A    between atoms: _481  and  _482
REMARK  204  A    between atoms: _481  and  _484
REMARK  205  A    between atoms: _484  and  _485
REMARK  206  A    between atoms: _491  and  _493
REMARK  207  A    between atoms: _493  and  _494
REMARK  208  A    between atoms: _493  and  _496
REMARK  209  A    between atoms: _496  and  _497
REMARK  210  A    between atoms: _500  and  _502
REMARK  211  A    between atoms: _502  and  _503
REMARK  212  A    between atoms: _502  and  _505
REMARK  213  A    between atoms: _508  and  _510
REMARK  214  A    between atoms: _510  and  _511
REMARK  215  A    between atoms: _510  and  _513
REMARK  216  A    between atoms: _513  and  _514
REMARK  217  A    between atoms: _517  and  _519
REMARK  218  A    between atoms: _519  and  _520
REMARK  219  A    between atoms: _519  and  _522
REMARK  220  A    between atoms: _522  and  _523
REMARK  221  A    between atoms: _527  and  _528
REMARK  222  A    between atoms: _533  and  _535
REMARK  223  A    between atoms: _535  and  _536
REMARK  224  A    between atoms: _535  and  _538
REMARK  225  A    between atoms: _541  and  _543
REMARK  226  A    between atoms: _543  and  _544
REMARK  227  A    between atoms: _543  and  _546
REMARK  228  A    between atoms: _546  and  _547
REMARK  229  A    between atoms: _552  and  _554
REMARK  230  A    between atoms: _554  and  _555
REMARK  231  A    between atoms: _554  and  _557
REMARK  232  A    between atoms: _557  and  _558
REMARK  233  A    between atoms: _561  and  _563
REMARK  234  A    between atoms: _563  and  _564
REMARK  235  A    between atoms: _563  and  _566
REMARK  236  A    between atoms: _566  and  _567
REMARK  237  A    between atoms: _570  and  _572
REMARK  238  A    between atoms: _572  and  _573
REMARK  239  A    between atoms: _575  and  _577
REMARK  240  A    between atoms: _577  and  _578
REMARK  241  A    between atoms: _577  and  _580
REMARK  242  A    between atoms: _580  and  _581
REMARK  243  A    between atoms: _581  and  _582
REMARK  244  A    between atoms: _582  and  _583
REMARK  245  A    between atoms: _592  and  _594
REMARK  246  A    between atoms: _594  and  _595
REMARK  247  A    between atoms: _594  and  _597
REMARK  248  A    between atoms: _597  and  _598
REMARK                            x       y       z     vdW  Elec       q    Type
REMARK                         _______ _______ _______ _____ _____    ______ ____
ROOT
ATOM      1  O   HOH     1       2.898  23.337   1.815  0.00  0.00    +0.000 OA
ENDROOT
TORSDOF 0
REMARK  Name = ../refined-set-2016/1d4h/1d4h_pocket.pdb
REMARK  248 active torsions:
REMARK  status: ('A' for Active; 'I' for Inactive)
REMARK    1  A    between atoms: _1  and  _3
REMARK    2  A    between atoms: _3  and  _4
REMARK    3  A    between atoms: _3  and  _6
REMARK    4  A    between atoms: _6  and  _7
REMARK    5  A    between atoms: _7  and  _8
REMARK    6  A    between atoms: _8  and  _9
REMARK    7  A    between atoms: _18  and  _20
REMARK    8  A    between atoms: _20  and  _21
REMARK    9  A    between atoms: _20  and  _23
REMARK   10  A    between atoms: _23  and  _24
REMARK   11  A    between atoms: _27  and  _29
REMARK   12  A    between atoms: _29  and  _30
REMARK   13  A    between atoms: _29  and  _32
REMARK   14  A    between atoms: _32  and  _33
REMARK   15  A    between atoms: _36  and  _38
REMARK   16  A    between atoms: _38  and  _39
REMARK   17  A    between atoms: _38  and  _41
REMARK   18  A    between atoms: _41  and  _42
REMARK   19  A    between atoms: _45  and  _47
REMARK   20  A    between atoms: _47  and  _48
REMARK   21  A    between atoms: _47  and  _50
REMARK   22  A    between atoms: _50  and  _51
REMARK   23  A    between atoms: _54  and  _56
REMARK   24  A    between atoms: _56  and  _57
REMARK   25  A    between atoms: _56  and  _59
REMARK   26  A    between atoms: _59  and  _60
REMARK   27  A    between atoms: _63  and  _65
REMARK   28  A    between atoms: _65  and  _66
REMARK   29  A    between atoms: _68  and  _70
REMARK   30  A    between atoms: _70  and  _71
REMARK   31  A    between atoms: _74  and  _76
REMARK   32  A    between atoms: _76  and  _77
REMARK   33  A    between atoms: _76  and  _79
REMARK   34  A    between atoms: _79  and  _80
REMARK   35  A    between atoms: _83  and  _85
REMARK   36  A    between atoms: _85  and  _86
REMARK   37  A    between atoms: _85  and  _88
REMARK   38  A    between atoms: _88  and  _89
REMARK   39  A    between atoms: _92  and  _94
REMARK   40  A    between atoms: _94  and  _95
REMARK   41  A    between atoms: _94  and  _97
REMARK   42  A    between atoms: _97  and  _98
REMARK   43  A    between atoms: _101  and  _103
REMARK   44  A    between atoms: _103  and  _104
REMARK   45  A    between atoms: _103  and  _106
REMARK   46  A    between atoms: _109  and  _111
REMARK   47  A    between atoms: _111  and  _112
REMARK   48  A    between atoms: _111  and  _114
REMARK   49  A    between atoms: _114  and  _115
REMARK   50  A    between atoms: _118  and  _120
REMARK   51  A    between atoms: _120  and  _121
REMARK   52  A    between atoms: _120  and  _123
REMARK   53  A    between atoms: _123  and  _124
REMARK   54  A    between atoms: _124  and  _125
REMARK   55  A    between atoms: _125  and  _126
REMARK   56  A    between atoms: _126  and  _127
REMARK   57  A    between atoms: _131  and  _133
REMARK   58  A    between atoms: _133  and  _134
REMARK   59  A    between atoms: _133  and  _136
REMARK   60  A    between atoms: _136  and  _137
REMARK   61  A    between atoms: _137  and  _138
REMARK   62  A    between atoms: _140  and  _142
REMARK   63  A    between atoms: _142  and  _143
REMARK   64  A    between atoms: _142  and  _145
REMARK   65  A    between atoms: _145  and  _146
REMARK   66  A    between atoms: _149  and  _151
REMARK   67  A    between atoms: _151  and  _152
REMARK   68  A    between atoms: _154  and  _156
REMARK   69  A    between atoms: _156  and  _157
REMARK   70  A    between atoms: _159  and  _161
REMARK   71  A    between atoms: _161  and  _162
REMARK   72  A    between atoms: _161  and  _164
REMARK   73  A    between atoms: _164  and  _165
REMARK   74  A    between atoms: _168  and  _170
REMARK   75  A    between atoms: _170  and  _171
REMARK   76  A    between atoms: _173  and  _175
REMARK   77  A    between atoms: _175  and  _176
REMARK   78  A    between atoms: _178  and  _180
REMARK   79  A    between atoms: _180  and  _181
REMARK   80  A    between atoms: _180  and  _183
REMARK   81  A    between atoms: _183  and  _184
REMARK   82  A    between atoms: _190  and  _192
REMARK   83  A    between atoms: _192  and  _193
REMARK   84  A    between atoms: _192  and  _195
REMARK   85  A    between atoms: _195  and  _196
REMARK   86  A    between atoms: _199  and  _201
REMARK   87  A    between atoms: _201  and  _202
REMARK   88  A    between atoms: _201  and  _204
REMARK   89  A    between atoms: _207  and  _209
REMARK   90  A    between atoms: _209  and  _210
REMARK   91  A    between atoms: _209  and  _212
REMARK   92  A    between atoms: _212  and  _213
REMARK   93  A    between atoms: _216  and  _218
REMARK   94  A    between atoms: _218  and  _219
REMARK   95  A    between atoms: _218  and  _221
REMARK   96  A    between atoms: _221  and  _222
REMARK   97  A    between atoms: _226  and  _227
REMARK   98  A    between atoms: _232  and  _234
REMARK   99  A    between atoms: _234  and  _235
REMARK  100  A    between atoms: _234  and  _237
REMARK  101  A    between atoms: _240  and  _242
REMARK  102  A    between atoms: _242  and  _243
REMARK  103  A    between atoms: _242  and  _245
REMARK  104  A    between atoms: _245  and  _246
REMARK  105  A    between atoms: _251  and  _253
REMARK  106  A    between atoms: _253  and  _254
REMARK  107  A    between atoms: _253  and  _256
REMARK  108  A    between atoms: _256  and  _257
REMARK  109  A    between atoms: _260  and  _262
REMARK  110  A    between atoms: _262  and  _263
REMARK  111  A    between atoms: _262  and  _265
REMARK  112  A    between atoms: _265  and  _266
REMARK  113  A    between atoms: _269  and  _271
REMARK  114  A    between atoms: _271  and  _272
REMARK  115  A    between atoms: _274  and  _276
REMARK  116  A    between atoms: _276  and  _277
REMARK  117  A    between atoms: _276  and  _279
REMARK  118  A    between atoms: _279  and  _280
REMARK  119  A    between atoms: _280  and  _281
REMARK  120  A    between atoms: _281  and  _282
REMARK  121  A    between atoms: _291  and  _293
REMARK  122  A    between atoms: _293  and  _294
REMARK  123  A    between atoms: _293  and  _296
REMARK  124  A    between atoms: _296  and  _297
REMARK  125  A    between atoms: _302  and  _304
REMARK  126  A    between atoms: _304  and  _305
REMARK  127  A    between atoms: _304  and  _307
REMARK  128  A    between atoms: _307  and  _308
REMARK  129  A    between atoms: _308  and  _309
REMARK  130  A    between atoms: _309  and  _310
REMARK  131  A    between atoms: _319  and  _321
REMARK  132  A    between atoms: _321  and  _322
REMARK  133  A    between atoms: _321  and  _324
REMARK  134  A    between atoms: _324  and  _325
REMARK  135  A    between atoms: _328  and  _330
REMARK  136  A    between atoms: _330  and  _331
REMARK  137  A    between atoms: _330  and  _333
REMARK  138  A    between atoms: _333  and  _334
REMARK  139  A    between atoms: _337  and  _339
REMARK  140  A    between atoms: _339  and  _340
REMARK  141  A    between atoms: _339  and  _342
REMARK  142  A    between atoms: _342  and  _343
REMARK  143  A    between atoms: _346  and  _348
REMARK  144  A    between atoms: _348  and  _349
REMARK  145  A    between atoms: _348  and  _351
REMARK  146  A    between atoms: _351  and  _352
REMARK  147  A    between atoms: _355  and  _357
REMARK  148  A    between atoms: _357  and  _358
REMARK  149  A    between atoms: _357  and  _360
REMARK  150  A    between atoms: _360  and  _361
REMARK  151  A    between atoms: _364  and  _366
REMARK  152  A    between atoms: _366  and  _367
REMARK  153  A    between atoms: _369  and  _371
REMARK  154  A    between atoms: _371  and  _372
REMARK  155  A    between atoms: _375  and  _377
REMARK  156  A    between atoms: _377  and  _378
REMARK  157  A    between atoms: _377  and  _380
REMARK  158  A    between atoms: _380  and  _381
REMARK  159  A    between atoms: _384  and  _386
REMARK  160  A    between atoms: _386  and  _387
REMARK  161  A    between atoms: _386  and  _389
REMARK  162  A    between atoms: _389  and  _390
REMARK  163  A    between atoms: _393  and  _395
REMARK  164  A    between atoms: _395  and  _396
REMARK  165  A    between atoms: _395  and  _398
REMARK  166  A    between atoms: _398  and  _399
REMARK  167  A    between atoms: _402  and  _404
REMARK  168  A    between atoms: _404  and  _405
REMARK  169  A    between atoms: _404  and  _407
REMARK  170  A    between atoms: _410  and  _412
REMARK  171  A    between atoms: _412  and  _413
REMARK  172  A    between atoms: _412  and  _415
REMARK  173  A    between atoms: _415  and  _416
REMARK  174  A    between atoms: _419  and  _421
REMARK  175  A    between atoms: _421  and  _422
REMARK  176  A    between atoms: _421  and  _424
REMARK  177  A    between atoms: _424  and  _425
REMARK  178  A    between atoms: _425  and  _426
REMARK  179  A    between atoms: _426  and  _427
REMARK  180  A    between atoms: _427  and  _428
REMARK  181  A    between atoms: _432  and  _434
REMARK  182  A    between atoms: _434  and  _435
REMARK  183  A    between atoms: _434  and  _437
REMARK  184  A    between atoms: _437  and  _438
REMARK  185  A    between atoms: _438  and  _439
REMARK  186  A    between atoms: _441  and  _443
REMARK  187  A    between atoms: _443  and  _444
REMARK  188  A    between atoms: _443  and  _446
REMARK  189  A    between atoms: _446  and  _447
REMARK  190  A    between atoms: _450  and  _452
REMARK  191  A    between atoms: _452  and  _453
REMARK  192  A    between atoms: _455  and  _457
REMARK  193  A    between atoms: _457  and  _458
REMARK  194  A    between atoms: _460  and  _462
REMARK  195  A    between atoms: _462  and  _463
REMARK  196  A    between atoms: _462  and  _465
REMARK  197  A    between atoms: _465  and  _466
REMARK  198  A    between atoms: _469  and  _471
REMARK  199  A    between atoms: _471  and  _472
REMARK  200  A    between atoms: _474  and  _476
REMARK  201  A    between atoms: _476  and  _477
REMARK  202  A    between atoms: _479  and  _481
REMARK  203  A    between atoms: _481  and  _482
REMARK  204  A    between atoms: _481  and  _484
REMARK  205  A    between atoms: _484  and  _485
REMARK  206  A    between atoms: _491  and  _493
REMARK  207  A    between atoms: _493  and  _494
REMARK  208  A    between atoms: _493  and  _496
REMARK  209  A    between atoms: _496  and  _497
REMARK  210  A    between atoms: _500  and  _502
REMARK  211  A    between atoms: _502  and  _503
REMARK  212  A    between atoms: _502  and  _505
REMARK  213  A    between atoms: _508  and  _510
REMARK  214  A    between atoms: _510  and  _511
REMARK  215  A    between atoms: _510  and  _513
REMARK  216  A    between atoms: _513  and  _514
REMARK  217  A    between atoms: _517  and  _519
REMARK  218  A    between atoms: _519  and  _520
REMARK  219  A    between atoms: _519  and  _522
REMARK  220  A    between atoms: _522  and  _523
REMARK  221  A    between atoms: _527  and  _528
REMARK  222  A    between atoms: _533  and  _535
REMARK  223  A    between atoms: _535  and  _536
REMARK  224  A    between atoms: _535  and  _538
REMARK  225  A    between atoms: _541  and  _543
REMARK  226  A    between atoms: _543  and  _544
REMARK  227  A    between atoms: _543  and  _546
REMARK  228  A    between atoms: _546  and  _547
REMARK  229  A    between atoms: _552  and  _554
REMARK  230  A    between atoms: _554  and  _555
REMARK  231  A    between atoms: _554  and  _557
REMARK  232  A    between atoms: _557  and  _558
REMARK  233  A    between atoms: _561  and  _563
REMARK  234  A    between atoms: _563  and  _564
REMARK  235  A    between atoms: _563  and  _566
REMARK  236  A    between atoms: _566  and  _567
REMARK  237  A    between atoms: _570  and  _572
REMARK  238  A    between atoms: _572  and  _573
REMARK  239  A    between atoms: _575  and  _577
REMARK  240  A    between atoms: _577  and  _578
REMARK  241  A    between atoms: _577  and  _580
REMARK  242  A    between atoms: _580  and  _581
REMARK  243  A    between atoms: _581  and  _582
REMARK  244  A    between atoms: _582  and  _583
REMARK  245  A    between atoms: _592  and  _594
REMARK  246  A    between atoms: _594  and  _595
REMARK  247  A    between atoms: _594  and  _597
REMARK  248  A    between atoms: _597  and  _598
REMARK                            x       y       z     vdW  Elec       q    Type
REMARK                         _______ _______ _______ _____ _____    ______ ____
ROOT
ATOM      1  O   HOH     1      20.569  22.078   6.505  0.00  0.00    +0.000 OA
ENDROOT
TORSDOF 0
REMARK  Name = ../refined-set-2016/1d4h/1d4h_pocket.pdb
REMARK  248 active torsions:
REMARK  status: ('A' for Active; 'I' for Inactive)
REMARK    1  A    between atoms: _1  and  _3
REMARK    2  A    between atoms: _3  and  _4
REMARK    3  A    between atoms: _3  and  _6
REMARK    4  A    between atoms: _6  and  _7
REMARK    5  A    between atoms: _7  and  _8
REMARK    6  A    between atoms: _8  and  _9
REMARK    7  A    between atoms: _18  and  _20
REMARK    8  A    between atoms: _20  and  _21
REMARK    9  A    between atoms: _20  and  _23
REMARK   10  A    between atoms: _23  and  _24
REMARK   11  A    between atoms: _27  and  _29
REMARK   12  A    between atoms: _29  and  _30
REMARK   13  A    between atoms: _29  and  _32
REMARK   14  A    between atoms: _32  and  _33
REMARK   15  A    between atoms: _36  and  _38
REMARK   16  A    between atoms: _38  and  _39
REMARK   17  A    between atoms: _38  and  _41
REMARK   18  A    between atoms: _41  and  _42
REMARK   19  A    between atoms: _45  and  _47
REMARK   20  A    between atoms: _47  and  _48
REMARK   21  A    between atoms: _47  and  _50
REMARK   22  A    between atoms: _50  and  _51
REMARK   23  A    between atoms: _54  and  _56
REMARK   24  A    between atoms: _56  and  _57
REMARK   25  A    between atoms: _56  and  _59
REMARK   26  A    between atoms: _59  and  _60
REMARK   27  A    between atoms: _63  and  _65
REMARK   28  A    between atoms: _65  and  _66
REMARK   29  A    between atoms: _68  and  _70
REMARK   30  A    between atoms: _70  and  _71
REMARK   31  A    between atoms: _74  and  _76
REMARK   32  A    between atoms: _76  and  _77
REMARK   33  A    between atoms: _76  and  _79
REMARK   34  A    between atoms: _79  and  _80
REMARK   35  A    between atoms: _83  and  _85
REMARK   36  A    between atoms: _85  and  _86
REMARK   37  A    between atoms: _85  and  _88
REMARK   38  A    between atoms: _88  and  _89
REMARK   39  A    between atoms: _92  and  _94
REMARK   40  A    between atoms: _94  and  _95
REMARK   41  A    between atoms: _94  and  _97
REMARK   42  A    between atoms: _97  and  _98
REMARK   43  A    between atoms: _101  and  _103
REMARK   44  A    between atoms: _103  and  _104
REMARK   45  A    between atoms: _103  and  _106
REMARK   46  A    between atoms: _109  and  _111
REMARK   47  A    between atoms: _111  and  _112
REMARK   48  A    between atoms: _111  and  _114
REMARK   49  A    between atoms: _114  and  _115
REMARK   50  A    between atoms: _118  and  _120
REMARK   51  A    between atoms: _120  and  _121
REMARK   52  A    between atoms: _120  and  _123
REMARK   53  A    between atoms: _123  and  _124
REMARK   54  A    between atoms: _124  and  _125
REMARK   55  A    between atoms: _125  and  _126
REMARK   56  A    between atoms: _126  and  _127
REMARK   57  A    between atoms: _131  and  _133
REMARK   58  A    between atoms: _133  and  _134
REMARK   59  A    between atoms: _133  and  _136
REMARK   60  A    between atoms: _136  and  _137
REMARK   61  A    between atoms: _137  and  _138
REMARK   62  A    between atoms: _140  and  _142
REMARK   63  A    between atoms: _142  and  _143
REMARK   64  A    between atoms: _142  and  _145
REMARK   65  A    between atoms: _145  and  _146
REMARK   66  A    between atoms: _149  and  _151
REMARK   67  A    between atoms: _151  and  _152
REMARK   68  A    between atoms: _154  and  _156
REMARK   69  A    between atoms: _156  and  _157
REMARK   70  A    between atoms: _159  and  _161
REMARK   71  A    between atoms: _161  and  _162
REMARK   72  A    between atoms: _161  and  _164
REMARK   73  A    between atoms: _164  and  _165
REMARK   74  A    between atoms: _168  and  _170
REMARK   75  A    between atoms: _170  and  _171
REMARK   76  A    between atoms: _173  and  _175
REMARK   77  A    between atoms: _175  and  _176
REMARK   78  A    between atoms: _178  and  _180
REMARK   79  A    between atoms: _180  and  _181
REMARK   80  A    between atoms: _180  and  _183
REMARK   81  A    between atoms: _183  and  _184
REMARK   82  A    between atoms: _190  and  _192
REMARK   83  A    between atoms: _192  and  _193
REMARK   84  A    between atoms: _192  and  _195
REMARK   85  A    between atoms: _195  and  _196
REMARK   86  A    between atoms: _199  and  _201
REMARK   87  A    between atoms: _201  and  _202
REMARK   88  A    between atoms: _201  and  _204
REMARK   89  A    between atoms: _207  and  _209
REMARK   90  A    between atoms: _209  and  _210
REMARK   91  A    between atoms: _209  and  _212
REMARK   92  A    between atoms: _212  and  _213
REMARK   93  A    between atoms: _216  and  _218
REMARK   94  A    between atoms: _218  and  _219
REMARK   95  A    between atoms: _218  and  _221
REMARK   96  A    between atoms: _221  and  _222
REMARK   97  A    between atoms: _226  and  _227
REMARK   98  A    between atoms: _232  and  _234
REMARK   99  A    between atoms: _234  and  _235
REMARK  100  A    between atoms: _234  and  _237
REMARK  101  A    between atoms: _240  and  _242
REMARK  102  A    between atoms: _242  and  _243
REMARK  103  A    between atoms: _242  and  _245
REMARK  104  A    between atoms: _245  and  _246
REMARK  105  A    between atoms: _251  and  _253
REMARK  106  A    between atoms: _253  and  _254
REMARK  107  A    between atoms: _253  and  _256
REMARK  108  A    between atoms: _256  and  _257
REMARK  109  A    between atoms: _260  and  _262
REMARK  110  A    between atoms: _262  and  _263
REMARK  111  A    between atoms: _262  and  _265
REMARK  112  A    between atoms: _265  and  _266
REMARK  113  A    between atoms: _269  and  _271
REMARK  114  A    between atoms: _271  and  _272
REMARK  115  A    between atoms: _274  and  _276
REMARK  116  A    between atoms: _276  and  _277
REMARK  117  A    between atoms: _276  and  _279
REMARK  118  A    between atoms: _279  and  _280
REMARK  119  A    between atoms: _280  and  _281
REMARK  120  A    between atoms: _281  and  _282
REMARK  121  A    between atoms: _291  and  _293
REMARK  122  A    between atoms: _293  and  _294
REMARK  123  A    between atoms: _293  and  _296
REMARK  124  A    between atoms: _296  and  _297
REMARK  125  A    between atoms: _302  and  _304
REMARK  126  A    between atoms: _304  and  _305
REMARK  127  A    between atoms: _304  and  _307
REMARK  128  A    between atoms: _307  and  _308
REMARK  129  A    between atoms: _308  and  _309
REMARK  130  A    between atoms: _309  and  _310
REMARK  131  A    between atoms: _319  and  _321
REMARK  132  A    between atoms: _321  and  _322
REMARK  133  A    between atoms: _321  and  _324
REMARK  134  A    between atoms: _324  and  _325
REMARK  135  A    between atoms: _328  and  _330
REMARK  136  A    between atoms: _330  and  _331
REMARK  137  A    between atoms: _330  and  _333
REMARK  138  A    between atoms: _333  and  _334
REMARK  139  A    between atoms: _337  and  _339
REMARK  140  A    between atoms: _339  and  _340
REMARK  141  A    between atoms: _339  and  _342
REMARK  142  A    between atoms: _342  and  _343
REMARK  143  A    between atoms: _346  and  _348
REMARK  144  A    between atoms: _348  and  _349
REMARK  145  A    between atoms: _348  and  _351
REMARK  146  A    between atoms: _351  and  _352
REMARK  147  A    between atoms: _355  and  _357
REMARK  148  A    between atoms: _357  and  _358
REMARK  149  A    between atoms: _357  and  _360
REMARK  150  A    between atoms: _360  and  _361
REMARK  151  A    between atoms: _364  and  _366
REMARK  152  A    between atoms: _366  and  _367
REMARK  153  A    between atoms: _369  and  _371
REMARK  154  A    between atoms: _371  and  _372
REMARK  155  A    between atoms: _375  and  _377
REMARK  156  A    between atoms: _377  and  _378
REMARK  157  A    between atoms: _377  and  _380
REMARK  158  A    between atoms: _380  and  _381
REMARK  159  A    between atoms: _384  and  _386
REMARK  160  A    between atoms: _386  and  _387
REMARK  161  A    between atoms: _386  and  _389
REMARK  162  A    between atoms: _389  and  _390
REMARK  163  A    between atoms: _393  and  _395
REMARK  164  A    between atoms: _395  and  _396
REMARK  165  A    between atoms: _395  and  _398
REMARK  166  A    between atoms: _398  and  _399
REMARK  167  A    between atoms: _402  and  _404
REMARK  168  A    between atoms: _404  and  _405
REMARK  169  A    between atoms: _404  and  _407
REMARK  170  A    between atoms: _410  and  _412
REMARK  171  A    between atoms: _412  and  _413
REMARK  172  A    between atoms: _412  and  _415
REMARK  173  A    between atoms: _415  and  _416
REMARK  174  A    between atoms: _419  and  _421
REMARK  175  A    between atoms: _421  and  _422
REMARK  176  A    between atoms: _421  and  _424
REMARK  177  A    between atoms: _424  and  _425
REMARK  178  A    between atoms: _425  and  _426
REMARK  179  A    between atoms: _426  and  _427
REMARK  180  A    between atoms: _427  and  _428
REMARK  181  A    between atoms: _432  and  _434
REMARK  182  A    between atoms: _434  and  _435
REMARK  183  A    between atoms: _434  and  _437
REMARK  184  A    between atoms: _437  and  _438
REMARK  185  A    between atoms: _438  and  _439
REMARK  186  A    between atoms: _441  and  _443
REMARK  187  A    between atoms: _443  and  _444
REMARK  188  A    between atoms: _443  and  _446
REMARK  189  A    between atoms: _446  and  _447
REMARK  190  A    between atoms: _450  and  _452
REMARK  191  A    between atoms: _452  and  _453
REMARK  192  A    between atoms: _455  and  _457
REMARK  193  A    between atoms: _457  and  _458
REMARK  194  A    between atoms: _460  and  _462
REMARK  195  A    between atoms: _462  and  _463
REMARK  196  A    between atoms: _462  and  _465
REMARK  197  A    between atoms: _465  and  _466
REMARK  198  A    between atoms: _469  and  _471
REMARK  199  A    between atoms: _471  and  _472
REMARK  200  A    between atoms: _474  and  _476
REMARK  201  A    between atoms: _476  and  _477
REMARK  202  A    between atoms: _479  and  _481
REMARK  203  A    between atoms: _481  and  _482
REMARK  204  A    between atoms: _481  and  _484
REMARK  205  A    between atoms: _484  and  _485
REMARK  206  A    between atoms: _491  and  _493
REMARK  207  A    between atoms: _493  and  _494
REMARK  208  A    between atoms: _493  and  _496
REMARK  209  A    between atoms: _496  and  _497
REMARK  210  A    between atoms: _500  and  _502
REMARK  211  A    between atoms: _502  and  _503
REMARK  212  A    between atoms: _502  and  _505
REMARK  213  A    between atoms: _508  and  _510
REMARK  214  A    between atoms: _510  and  _511
REMARK  215  A    between atoms: _510  and  _513
REMARK  216  A    between atoms: _513  and  _514
REMARK  217  A    between atoms: _517  and  _519
REMARK  218  A    between atoms: _519  and  _520
REMARK  219  A    between atoms: _519  and  _522
REMARK  220  A    between atoms: _522  and  _523
REMARK  221  A    between atoms: _527  and  _528
REMARK  222  A    between atoms: _533  and  _535
REMARK  223  A    between atoms: _535  and  _536
REMARK  224  A    between atoms: _535  and  _538
REMARK  225  A    between atoms: _541  and  _543
REMARK  226  A    between atoms: _543  and  _544
REMARK  227  A    between atoms: _543  and  _546
REMARK  228  A    between atoms: _546  and  _547
REMARK  229  A    between atoms: _552  and  _554
REMARK  230  A    between atoms: _554  and  _555
REMARK  231  A    between atoms: _554  and  _557
REMARK  232  A    between atoms: _557  and  _558
REMARK  233  A    between atoms: _561  and  _563
REMARK  234  A    between atoms: _563  and  _564
REMARK  235  A    between atoms: _563  and  _566
REMARK  236  A    between atoms: _566  and  _567
REMARK  237  A    between atoms: _570  and  _572
REMARK  238  A    between atoms: _572  and  _573
REMARK  239  A    between atoms: _575  and  _577
REMARK  240  A    between atoms: _577  and  _578
REMARK  241  A    between atoms: _577  and  _580
REMARK  242  A    between atoms: _580  and  _581
REMARK  243  A    between atoms: _581  and  _582
REMARK  244  A    between atoms: _582  and  _583
REMARK  245  A    between atoms: _592  and  _594
REMARK  246  A    between atoms: _594  and  _595
REMARK  247  A    between atoms: _594  and  _597
REMARK  248  A    between atoms: _597  and  _598
REMARK                            x       y       z     vdW  Elec       q    Type
REMARK                         _______ _______ _______ _____ _____    ______ ____
ROOT
ATOM      1  O   HOH     1      25.197  19.512   0.401  0.00  0.00    +0.000 OA
ENDROOT
TORSDOF 0
REMARK  Name = ../refined-set-2016/1d4h/1d4h_pocket.pdb
REMARK  248 active torsions:
REMARK  status: ('A' for Active; 'I' for Inactive)
REMARK    1  A    between atoms: _1  and  _3
REMARK    2  A    between atoms: _3  and  _4
REMARK    3  A    between atoms: _3  and  _6
REMARK    4  A    between atoms: _6  and  _7
REMARK    5  A    between atoms: _7  and  _8
REMARK    6  A    between atoms: _8  and  _9
REMARK    7  A    between atoms: _18  and  _20
REMARK    8  A    between atoms: _20  and  _21
REMARK    9  A    between atoms: _20  and  _23
REMARK   10  A    between atoms: _23  and  _24
REMARK   11  A    between atoms: _27  and  _29
REMARK   12  A    between atoms: _29  and  _30
REMARK   13  A    between atoms: _29  and  _32
REMARK   14  A    between atoms: _32  and  _33
REMARK   15  A    between atoms: _36  and  _38
REMARK   16  A    between atoms: _38  and  _39
REMARK   17  A    between atoms: _38  and  _41
REMARK   18  A    between atoms: _41  and  _42
REMARK   19  A    between atoms: _45  and  _47
REMARK   20  A    between atoms: _47  and  _48
REMARK   21  A    between atoms: _47  and  _50
REMARK   22  A    between atoms: _50  and  _51
REMARK   23  A    between atoms: _54  and  _56
REMARK   24  A    between atoms: _56  and  _57
REMARK   25  A    between atoms: _56  and  _59
REMARK   26  A    between atoms: _59  and  _60
REMARK   27  A    between atoms: _63  and  _65
REMARK   28  A    between atoms: _65  and  _66
REMARK   29  A    between atoms: _68  and  _70
REMARK   30  A    between atoms: _70  and  _71
REMARK   31  A    between atoms: _74  and  _76
REMARK   32  A    between atoms: _76  and  _77
REMARK   33  A    between atoms: _76  and  _79
REMARK   34  A    between atoms: _79  and  _80
REMARK   35  A    between atoms: _83  and  _85
REMARK   36  A    between atoms: _85  and  _86
REMARK   37  A    between atoms: _85  and  _88
REMARK   38  A    between atoms: _88  and  _89
REMARK   39  A    between atoms: _92  and  _94
REMARK   40  A    between atoms: _94  and  _95
REMARK   41  A    between atoms: _94  and  _97
REMARK   42  A    between atoms: _97  and  _98
REMARK   43  A    between atoms: _101  and  _103
REMARK   44  A    between atoms: _103  and  _104
REMARK   45  A    between atoms: _103  and  _106
REMARK   46  A    between atoms: _109  and  _111
REMARK   47  A    between atoms: _111  and  _112
REMARK   48  A    between atoms: _111  and  _114
REMARK   49  A    between atoms: _114  and  _115
REMARK   50  A    between atoms: _118  and  _120
REMARK   51  A    between atoms: _120  and  _121
REMARK   52  A    between atoms: _120  and  _123
REMARK   53  A    between atoms: _123  and  _124
REMARK   54  A    between atoms: _124  and  _125
REMARK   55  A    between atoms: _125  and  _126
REMARK   56  A    between atoms: _126  and  _127
REMARK   57  A    between atoms: _131  and  _133
REMARK   58  A    between atoms: _133  and  _134
REMARK   59  A    between atoms: _133  and  _136
REMARK   60  A    between atoms: _136  and  _137
REMARK   61  A    between atoms: _137  and  _138
REMARK   62  A    between atoms: _140  and  _142
REMARK   63  A    between atoms: _142  and  _143
REMARK   64  A    between atoms: _142  and  _145
REMARK   65  A    between atoms: _145  and  _146
REMARK   66  A    between atoms: _149  and  _151
REMARK   67  A    between atoms: _151  and  _152
REMARK   68  A    between atoms: _154  and  _156
REMARK   69  A    between atoms: _156  and  _157
REMARK   70  A    between atoms: _159  and  _161
REMARK   71  A    between atoms: _161  and  _162
REMARK   72  A    between atoms: _161  and  _164
REMARK   73  A    between atoms: _164  and  _165
REMARK   74  A    between atoms: _168  and  _170
REMARK   75  A    between atoms: _170  and  _171
REMARK   76  A    between atoms: _173  and  _175
REMARK   77  A    between atoms: _175  and  _176
REMARK   78  A    between atoms: _178  and  _180
REMARK   79  A    between atoms: _180  and  _181
REMARK   80  A    between atoms: _180  and  _183
REMARK   81  A    between atoms: _183  and  _184
REMARK   82  A    between atoms: _190  and  _192
REMARK   83  A    between atoms: _192  and  _193
REMARK   84  A    between atoms: _192  and  _195
REMARK   85  A    between atoms: _195  and  _196
REMARK   86  A    between atoms: _199  and  _201
REMARK   87  A    between atoms: _201  and  _202
REMARK   88  A    between atoms: _201  and  _204
REMARK   89  A    between atoms: _207  and  _209
REMARK   90  A    between atoms: _209  and  _210
REMARK   91  A    between atoms: _209  and  _212
REMARK   92  A    between atoms: _212  and  _213
REMARK   93  A    between atoms: _216  and  _218
REMARK   94  A    between atoms: _218  and  _219
REMARK   95  A    between atoms: _218  and  _221
REMARK   96  A    between atoms: _221  and  _222
REMARK   97  A    between atoms: _226  and  _227
REMARK   98  A    between atoms: _232  and  _234
REMARK   99  A    between atoms: _234  and  _235
REMARK  100  A    between atoms: _234  and  _237
REMARK  101  A    between atoms: _240  and  _242
REMARK  102  A    between atoms: _242  and  _243
REMARK  103  A    between atoms: _242  and  _245
REMARK  104  A    between atoms: _245  and  _246
REMARK  105  A    between atoms: _251  and  _253
REMARK  106  A    between atoms: _253  and  _254
REMARK  107  A    between atoms: _253  and  _256
REMARK  108  A    between atoms: _256  and  _257
REMARK  109  A    between atoms: _260  and  _262
REMARK  110  A    between atoms: _262  and  _263
REMARK  111  A    between atoms: _262  and  _265
REMARK  112  A    between atoms: _265  and  _266
REMARK  113  A    between atoms: _269  and  _271
REMARK  114  A    between atoms: _271  and  _272
REMARK  115  A    between atoms: _274  and  _276
REMARK  116  A    between atoms: _276  and  _277
REMARK  117  A    between atoms: _276  and  _279
REMARK  118  A    between atoms: _279  and  _280
REMARK  119  A    between atoms: _280  and  _281
REMARK  120  A    between atoms: _281  and  _282
REMARK  121  A    between atoms: _291  and  _293
REMARK  122  A    between atoms: _293  and  _294
REMARK  123  A    between atoms: _293  and  _296
REMARK  124  A    between atoms: _296  and  _297
REMARK  125  A    between atoms: _302  and  _304
REMARK  126  A    between atoms: _304  and  _305
REMARK  127  A    between atoms: _304  and  _307
REMARK  128  A    between atoms: _307  and  _308
REMARK  129  A    between atoms: _308  and  _309
REMARK  130  A    between atoms: _309  and  _310
REMARK  131  A    between atoms: _319  and  _321
REMARK  132  A    between atoms: _321  and  _322
REMARK  133  A    between atoms: _321  and  _324
REMARK  134  A    between atoms: _324  and  _325
REMARK  135  A    between atoms: _328  and  _330
REMARK  136  A    between atoms: _330  and  _331
REMARK  137  A    between atoms: _330  and  _333
REMARK  138  A    between atoms: _333  and  _334
REMARK  139  A    between atoms: _337  and  _339
REMARK  140  A    between atoms: _339  and  _340
REMARK  141  A    between atoms: _339  and  _342
REMARK  142  A    between atoms: _342  and  _343
REMARK  143  A    between atoms: _346  and  _348
REMARK  144  A    between atoms: _348  and  _349
REMARK  145  A    between atoms: _348  and  _351
REMARK  146  A    between atoms: _351  and  _352
REMARK  147  A    between atoms: _355  and  _357
REMARK  148  A    between atoms: _357  and  _358
REMARK  149  A    between atoms: _357  and  _360
REMARK  150  A    between atoms: _360  and  _361
REMARK  151  A    between atoms: _364  and  _366
REMARK  152  A    between atoms: _366  and  _367
REMARK  153  A    between atoms: _369  and  _371
REMARK  154  A    between atoms: _371  and  _372
REMARK  155  A    between atoms: _375  and  _377
REMARK  156  A    between atoms: _377  and  _378
REMARK  157  A    between atoms: _377  and  _380
REMARK  158  A    between atoms: _380  and  _381
REMARK  159  A    between atoms: _384  and  _386
REMARK  160  A    between atoms: _386  and  _387
REMARK  161  A    between atoms: _386  and  _389
REMARK  162  A    between atoms: _389  and  _390
REMARK  163  A    between atoms: _393  and  _395
REMARK  164  A    between atoms: _395  and  _396
REMARK  165  A    between atoms: _395  and  _398
REMARK  166  A    between atoms: _398  and  _399
REMARK  167  A    between atoms: _402  and  _404
REMARK  168  A    between atoms: _404  and  _405
REMARK  169  A    between atoms: _404  and  _407
REMARK  170  A    between atoms: _410  and  _412
REMARK  171  A    between atoms: _412  and  _413
REMARK  172  A    between atoms: _412  and  _415
REMARK  173  A    between atoms: _415  and  _416
REMARK  174  A    between atoms: _419  and  _421
REMARK  175  A    between atoms: _421  and  _422
REMARK  176  A    between atoms: _421  and  _424
REMARK  177  A    between atoms: _424  and  _425
REMARK  178  A    between atoms: _425  and  _426
REMARK  179  A    between atoms: _426  and  _427
REMARK  180  A    between atoms: _427  and  _428
REMARK  181  A    between atoms: _432  and  _434
REMARK  182  A    between atoms: _434  and  _435
REMARK  183  A    between atoms: _434  and  _437
REMARK  184  A    between atoms: _437  and  _438
REMARK  185  A    between atoms: _438  and  _439
REMARK  186  A    between atoms: _441  and  _443
REMARK  187  A    between atoms: _443  and  _444
REMARK  188  A    between atoms: _443  and  _446
REMARK  189  A    between atoms: _446  and  _447
REMARK  190  A    between atoms: _450  and  _452
REMARK  191  A    between atoms: _452  and  _453
REMARK  192  A    between atoms: _455  and  _457
REMARK  193  A    between atoms: _457  and  _458
REMARK  194  A    between atoms: _460  and  _462
REMARK  195  A    between atoms: _462  and  _463
REMARK  196  A    between atoms: _462  and  _465
REMARK  197  A    between atoms: _465  and  _466
REMARK  198  A    between atoms: _469  and  _471
REMARK  199  A    between atoms: _471  and  _472
REMARK  200  A    between atoms: _474  and  _476
REMARK  201  A    between atoms: _476  and  _477
REMARK  202  A    between atoms: _479  and  _481
REMARK  203  A    between atoms: _481  and  _482
REMARK  204  A    between atoms: _481  and  _484
REMARK  205  A    between atoms: _484  and  _485
REMARK  206  A    between atoms: _491  and  _493
REMARK  207  A    between atoms: _493  and  _494
REMARK  208  A    between atoms: _493  and  _496
REMARK  209  A    between atoms: _496  and  _497
REMARK  210  A    between atoms: _500  and  _502
REMARK  211  A    between atoms: _502  and  _503
REMARK  212  A    between atoms: _502  and  _505
REMARK  213  A    between atoms: _508  and  _510
REMARK  214  A    between atoms: _510  and  _511
REMARK  215  A    between atoms: _510  and  _513
REMARK  216  A    between atoms: _513  and  _514
REMARK  217  A    between atoms: _517  and  _519
REMARK  218  A    between atoms: _519  and  _520
REMARK  219  A    between atoms: _519  and  _522
REMARK  220  A    between atoms: _522  and  _523
REMARK  221  A    between atoms: _527  and  _528
REMARK  222  A    between atoms: _533  and  _535
REMARK  223  A    between atoms: _535  and  _536
REMARK  224  A    between atoms: _535  and  _538
REMARK  225  A    between atoms: _541  and  _543
REMARK  226  A    between atoms: _543  and  _544
REMARK  227  A    between atoms: _543  and  _546
REMARK  228  A    between atoms: _546  and  _547
REMARK  229  A    between atoms: _552  and  _554
REMARK  230  A    between atoms: _554  and  _555
REMARK  231  A    between atoms: _554  and  _557
REMARK  232  A    between atoms: _557  and  _558
REMARK  233  A    between atoms: _561  and  _563
REMARK  234  A    between atoms: _563  and  _564
REMARK  235  A    between atoms: _563  and  _566
REMARK  236  A    between atoms: _566  and  _567
REMARK  237  A    between atoms: _570  and  _572
REMARK  238  A    between atoms: _572  and  _573
REMARK  239  A    between atoms: _575  and  _577
REMARK  240  A    between atoms: _577  and  _578
REMARK  241  A    between atoms: _577  and  _580
REMARK  242  A    between atoms: _580  and  _581
REMARK  243  A    between atoms: _581  and  _582
REMARK  244  A    between atoms: _582  and  _583
REMARK  245  A    between atoms: _592  and  _594
REMARK  246  A    between atoms: _594  and  _595
REMARK  247  A    between atoms: _594  and  _597
REMARK  248  A    between atoms: _597  and  _598
REMARK                            x       y       z     vdW  Elec       q    Type
REMARK                         _______ _______ _______ _____ _____    ______ ____
ROOT
ATOM      1  O   HOH     1      19.811  11.006   6.080  0.00  0.00    +0.000 OA
ENDROOT
TORSDOF 0
REMARK  Name = ../refined-set-2016/1d4h/1d4h_pocket.pdb
REMARK  248 active torsions:
REMARK  status: ('A' for Active; 'I' for Inactive)
REMARK    1  A    between atoms: _1  and  _3
REMARK    2  A    between atoms: _3  and  _4
REMARK    3  A    between atoms: _3  and  _6
REMARK    4  A    between atoms: _6  and  _7
REMARK    5  A    between atoms: _7  and  _8
REMARK    6  A    between atoms: _8  and  _9
REMARK    7  A    between atoms: _18  and  _20
REMARK    8  A    between atoms: _20  and  _21
REMARK    9  A    between atoms: _20  and  _23
REMARK   10  A    between atoms: _23  and  _24
REMARK   11  A    between atoms: _27  and  _29
REMARK   12  A    between atoms: _29  and  _30
REMARK   13  A    between atoms: _29  and  _32
REMARK   14  A    between atoms: _32  and  _33
REMARK   15  A    between atoms: _36  and  _38
REMARK   16  A    between atoms: _38  and  _39
REMARK   17  A    between atoms: _38  and  _41
REMARK   18  A    between atoms: _41  and  _42
REMARK   19  A    between atoms: _45  and  _47
REMARK   20  A    between atoms: _47  and  _48
REMARK   21  A    between atoms: _47  and  _50
REMARK   22  A    between atoms: _50  and  _51
REMARK   23  A    between atoms: _54  and  _56
REMARK   24  A    between atoms: _56  and  _57
REMARK   25  A    between atoms: _56  and  _59
REMARK   26  A    between atoms: _59  and  _60
REMARK   27  A    between atoms: _63  and  _65
REMARK   28  A    between atoms: _65  and  _66
REMARK   29  A    between atoms: _68  and  _70
REMARK   30  A    between atoms: _70  and  _71
REMARK   31  A    between atoms: _74  and  _76
REMARK   32  A    between atoms: _76  and  _77
REMARK   33  A    between atoms: _76  and  _79
REMARK   34  A    between atoms: _79  and  _80
REMARK   35  A    between atoms: _83  and  _85
REMARK   36  A    between atoms: _85  and  _86
REMARK   37  A    between atoms: _85  and  _88
REMARK   38  A    between atoms: _88  and  _89
REMARK   39  A    between atoms: _92  and  _94
REMARK   40  A    between atoms: _94  and  _95
REMARK   41  A    between atoms: _94  and  _97
REMARK   42  A    between atoms: _97  and  _98
REMARK   43  A    between atoms: _101  and  _103
REMARK   44  A    between atoms: _103  and  _104
REMARK   45  A    between atoms: _103  and  _106
REMARK   46  A    between atoms: _109  and  _111
REMARK   47  A    between atoms: _111  and  _112
REMARK   48  A    between atoms: _111  and  _114
REMARK   49  A    between atoms: _114  and  _115
REMARK   50  A    between atoms: _118  and  _120
REMARK   51  A    between atoms: _120  and  _121
REMARK   52  A    between atoms: _120  and  _123
REMARK   53  A    between atoms: _123  and  _124
REMARK   54  A    between atoms: _124  and  _125
REMARK   55  A    between atoms: _125  and  _126
REMARK   56  A    between atoms: _126  and  _127
REMARK   57  A    between atoms: _131  and  _133
REMARK   58  A    between atoms: _133  and  _134
REMARK   59  A    between atoms: _133  and  _136
REMARK   60  A    between atoms: _136  and  _137
REMARK   61  A    between atoms: _137  and  _138
REMARK   62  A    between atoms: _140  and  _142
REMARK   63  A    between atoms: _142  and  _143
REMARK   64  A    between atoms: _142  and  _145
REMARK   65  A    between atoms: _145  and  _146
REMARK   66  A    between atoms: _149  and  _151
REMARK   67  A    between atoms: _151  and  _152
REMARK   68  A    between atoms: _154  and  _156
REMARK   69  A    between atoms: _156  and  _157
REMARK   70  A    between atoms: _159  and  _161
REMARK   71  A    between atoms: _161  and  _162
REMARK   72  A    between atoms: _161  and  _164
REMARK   73  A    between atoms: _164  and  _165
REMARK   74  A    between atoms: _168  and  _170
REMARK   75  A    between atoms: _170  and  _171
REMARK   76  A    between atoms: _173  and  _175
REMARK   77  A    between atoms: _175  and  _176
REMARK   78  A    between atoms: _178  and  _180
REMARK   79  A    between atoms: _180  and  _181
REMARK   80  A    between atoms: _180  and  _183
REMARK   81  A    between atoms: _183  and  _184
REMARK   82  A    between atoms: _190  and  _192
REMARK   83  A    between atoms: _192  and  _193
REMARK   84  A    between atoms: _192  and  _195
REMARK   85  A    between atoms: _195  and  _196
REMARK   86  A    between atoms: _199  and  _201
REMARK   87  A    between atoms: _201  and  _202
REMARK   88  A    between atoms: _201  and  _204
REMARK   89  A    between atoms: _207  and  _209
REMARK   90  A    between atoms: _209  and  _210
REMARK   91  A    between atoms: _209  and  _212
REMARK   92  A    between atoms: _212  and  _213
REMARK   93  A    between atoms: _216  and  _218
REMARK   94  A    between atoms: _218  and  _219
REMARK   95  A    between atoms: _218  and  _221
REMARK   96  A    between atoms: _221  and  _222
REMARK   97  A    between atoms: _226  and  _227
REMARK   98  A    between atoms: _232  and  _234
REMARK   99  A    between atoms: _234  and  _235
REMARK  100  A    between atoms: _234  and  _237
REMARK  101  A    between atoms: _240  and  _242
REMARK  102  A    between atoms: _242  and  _243
REMARK  103  A    between atoms: _242  and  _245
REMARK  104  A    between atoms: _245  and  _246
REMARK  105  A    between atoms: _251  and  _253
REMARK  106  A    between atoms: _253  and  _254
REMARK  107  A    between atoms: _253  and  _256
REMARK  108  A    between atoms: _256  and  _257
REMARK  109  A    between atoms: _260  and  _262
REMARK  110  A    between atoms: _262  and  _263
REMARK  111  A    between atoms: _262  and  _265
REMARK  112  A    between atoms: _265  and  _266
REMARK  113  A    between atoms: _269  and  _271
REMARK  114  A    between atoms: _271  and  _272
REMARK  115  A    between atoms: _274  and  _276
REMARK  116  A    between atoms: _276  and  _277
REMARK  117  A    between atoms: _276  and  _279
REMARK  118  A    between atoms: _279  and  _280
REMARK  119  A    between atoms: _280  and  _281
REMARK  120  A    between atoms: _281  and  _282
REMARK  121  A    between atoms: _291  and  _293
REMARK  122  A    between atoms: _293  and  _294
REMARK  123  A    between atoms: _293  and  _296
REMARK  124  A    between atoms: _296  and  _297
REMARK  125  A    between atoms: _302  and  _304
REMARK  126  A    between atoms: _304  and  _305
REMARK  127  A    between atoms: _304  and  _307
REMARK  128  A    between atoms: _307  and  _308
REMARK  129  A    between atoms: _308  and  _309
REMARK  130  A    between atoms: _309  and  _310
REMARK  131  A    between atoms: _319  and  _321
REMARK  132  A    between atoms: _321  and  _322
REMARK  133  A    between atoms: _321  and  _324
REMARK  134  A    between atoms: _324  and  _325
REMARK  135  A    between atoms: _328  and  _330
REMARK  136  A    between atoms: _330  and  _331
REMARK  137  A    between atoms: _330  and  _333
REMARK  138  A    between atoms: _333  and  _334
REMARK  139  A    between atoms: _337  and  _339
REMARK  140  A    between atoms: _339  and  _340
REMARK  141  A    between atoms: _339  and  _342
REMARK  142  A    between atoms: _342  and  _343
REMARK  143  A    between atoms: _346  and  _348
REMARK  144  A    between atoms: _348  and  _349
REMARK  145  A    between atoms: _348  and  _351
REMARK  146  A    between atoms: _351  and  _352
REMARK  147  A    between atoms: _355  and  _357
REMARK  148  A    between atoms: _357  and  _358
REMARK  149  A    between atoms: _357  and  _360
REMARK  150  A    between atoms: _360  and  _361
REMARK  151  A    between atoms: _364  and  _366
REMARK  152  A    between atoms: _366  and  _367
REMARK  153  A    between atoms: _369  and  _371
REMARK  154  A    between atoms: _371  and  _372
REMARK  155  A    between atoms: _375  and  _377
REMARK  156  A    between atoms: _377  and  _378
REMARK  157  A    between atoms: _377  and  _380
REMARK  158  A    between atoms: _380  and  _381
REMARK  159  A    between atoms: _384  and  _386
REMARK  160  A    between atoms: _386  and  _387
REMARK  161  A    between atoms: _386  and  _389
REMARK  162  A    between atoms: _389  and  _390
REMARK  163  A    between atoms: _393  and  _395
REMARK  164  A    between atoms: _395  and  _396
REMARK  165  A    between atoms: _395  and  _398
REMARK  166  A    between atoms: _398  and  _399
REMARK  167  A    between atoms: _402  and  _404
REMARK  168  A    between atoms: _404  and  _405
REMARK  169  A    between atoms: _404  and  _407
REMARK  170  A    between atoms: _410  and  _412
REMARK  171  A    between atoms: _412  and  _413
REMARK  172  A    between atoms: _412  and  _415
REMARK  173  A    between atoms: _415  and  _416
REMARK  174  A    between atoms: _419  and  _421
REMARK  175  A    between atoms: _421  and  _422
REMARK  176  A    between atoms: _421  and  _424
REMARK  177  A    between atoms: _424  and  _425
REMARK  178  A    between atoms: _425  and  _426
REMARK  179  A    between atoms: _426  and  _427
REMARK  180  A    between atoms: _427  and  _428
REMARK  181  A    between atoms: _432  and  _434
REMARK  182  A    between atoms: _434  and  _435
REMARK  183  A    between atoms: _434  and  _437
REMARK  184  A    between atoms: _437  and  _438
REMARK  185  A    between atoms: _438  and  _439
REMARK  186  A    between atoms: _441  and  _443
REMARK  187  A    between atoms: _443  and  _444
REMARK  188  A    between atoms: _443  and  _446
REMARK  189  A    between atoms: _446  and  _447
REMARK  190  A    between atoms: _450  and  _452
REMARK  191  A    between atoms: _452  and  _453
REMARK  192  A    between atoms: _455  and  _457
REMARK  193  A    between atoms: _457  and  _458
REMARK  194  A    between atoms: _460  and  _462
REMARK  195  A    between atoms: _462  and  _463
REMARK  196  A    between atoms: _462  and  _465
REMARK  197  A    between atoms: _465  and  _466
REMARK  198  A    between atoms: _469  and  _471
REMARK  199  A    between atoms: _471  and  _472
REMARK  200  A    between atoms: _474  and  _476
REMARK  201  A    between atoms: _476  and  _477
REMARK  202  A    between atoms: _479  and  _481
REMARK  203  A    between atoms: _481  and  _482
REMARK  204  A    between atoms: _481  and  _484
REMARK  205  A    between atoms: _484  and  _485
REMARK  206  A    between atoms: _491  and  _493
REMARK  207  A    between atoms: _493  and  _494
REMARK  208  A    between atoms: _493  and  _496
REMARK  209  A    between atoms: _496  and  _497
REMARK  210  A    between atoms: _500  and  _502
REMARK  211  A    between atoms: _502  and  _503
REMARK  212  A    between atoms: _502  and  _505
REMARK  213  A    between atoms: _508  and  _510
REMARK  214  A    between atoms: _510  and  _511
REMARK  215  A    between atoms: _510  and  _513
REMARK  216  A    between atoms: _513  and  _514
REMARK  217  A    between atoms: _517  and  _519
REMARK  218  A    between atoms: _519  and  _520
REMARK  219  A    between atoms: _519  and  _522
REMARK  220  A    between atoms: _522  and  _523
REMARK  221  A    between atoms: _527  and  _528
REMARK  222  A    between atoms: _533  and  _535
REMARK  223  A    between atoms: _535  and  _536
REMARK  224  A    between atoms: _535  and  _538
REMARK  225  A    between atoms: _541  and  _543
REMARK  226  A    between atoms: _543  and  _544
REMARK  227  A    between atoms: _543  and  _546
REMARK  228  A    between atoms: _546  and  _547
REMARK  229  A    between atoms: _552  and  _554
REMARK  230  A    between atoms: _554  and  _555
REMARK  231  A    between atoms: _554  and  _557
REMARK  232  A    between atoms: _557  and  _558
REMARK  233  A    between atoms: _561  and  _563
REMARK  234  A    between atoms: _563  and  _564
REMARK  235  A    between atoms: _563  and  _566
REMARK  236  A    between atoms: _566  and  _567
REMARK  237  A    between atoms: _570  and  _572
REMARK  238  A    between atoms: _572  and  _573
REMARK  239  A    between atoms: _575  and  _577
REMARK  240  A    between atoms: _577  and  _578
REMARK  241  A    between atoms: _577  and  _580
REMARK  242  A    between atoms: _580  and  _581
REMARK  243  A    between atoms: _581  and  _582
REMARK  244  A    between atoms: _582  and  _583
REMARK  245  A    between atoms: _592  and  _594
REMARK  246  A    between atoms: _594  and  _595
REMARK  247  A    between atoms: _594  and  _597
REMARK  248  A    between atoms: _597  and  _598
REMARK                            x       y       z     vdW  Elec       q    Type
REMARK                         _______ _______ _______ _____ _____    ______ ____
ROOT
ATOM      1  O   HOH     1      13.963  15.778  11.368  0.00  0.00    +0.000 OA
ENDROOT
TORSDOF 0
REMARK  Name = ../refined-set-2016/1d4h/1d4h_pocket.pdb
REMARK  248 active torsions:
REMARK  status: ('A' for Active; 'I' for Inactive)
REMARK    1  A    between atoms: _1  and  _3
REMARK    2  A    between atoms: _3  and  _4
REMARK    3  A    between atoms: _3  and  _6
REMARK    4  A    between atoms: _6  and  _7
REMARK    5  A    between atoms: _7  and  _8
REMARK    6  A    between atoms: _8  and  _9
REMARK    7  A    between atoms: _18  and  _20
REMARK    8  A    between atoms: _20  and  _21
REMARK    9  A    between atoms: _20  and  _23
REMARK   10  A    between atoms: _23  and  _24
REMARK   11  A    between atoms: _27  and  _29
REMARK   12  A    between atoms: _29  and  _30
REMARK   13  A    between atoms: _29  and  _32
REMARK   14  A    between atoms: _32  and  _33
REMARK   15  A    between atoms: _36  and  _38
REMARK   16  A    between atoms: _38  and  _39
REMARK   17  A    between atoms: _38  and  _41
REMARK   18  A    between atoms: _41  and  _42
REMARK   19  A    between atoms: _45  and  _47
REMARK   20  A    between atoms: _47  and  _48
REMARK   21  A    between atoms: _47  and  _50
REMARK   22  A    between atoms: _50  and  _51
REMARK   23  A    between atoms: _54  and  _56
REMARK   24  A    between atoms: _56  and  _57
REMARK   25  A    between atoms: _56  and  _59
REMARK   26  A    between atoms: _59  and  _60
REMARK   27  A    between atoms: _63  and  _65
REMARK   28  A    between atoms: _65  and  _66
REMARK   29  A    between atoms: _68  and  _70
REMARK   30  A    between atoms: _70  and  _71
REMARK   31  A    between atoms: _74  and  _76
REMARK   32  A    between atoms: _76  and  _77
REMARK   33  A    between atoms: _76  and  _79
REMARK   34  A    between atoms: _79  and  _80
REMARK   35  A    between atoms: _83  and  _85
REMARK   36  A    between atoms: _85  and  _86
REMARK   37  A    between atoms: _85  and  _88
REMARK   38  A    between atoms: _88  and  _89
REMARK   39  A    between atoms: _92  and  _94
REMARK   40  A    between atoms: _94  and  _95
REMARK   41  A    between atoms: _94  and  _97
REMARK   42  A    between atoms: _97  and  _98
REMARK   43  A    between atoms: _101  and  _103
REMARK   44  A    between atoms: _103  and  _104
REMARK   45  A    between atoms: _103  and  _106
REMARK   46  A    between atoms: _109  and  _111
REMARK   47  A    between atoms: _111  and  _112
REMARK   48  A    between atoms: _111  and  _114
REMARK   49  A    between atoms: _114  and  _115
REMARK   50  A    between atoms: _118  and  _120
REMARK   51  A    between atoms: _120  and  _121
REMARK   52  A    between atoms: _120  and  _123
REMARK   53  A    between atoms: _123  and  _124
REMARK   54  A    between atoms: _124  and  _125
REMARK   55  A    between atoms: _125  and  _126
REMARK   56  A    between atoms: _126  and  _127
REMARK   57  A    between atoms: _131  and  _133
REMARK   58  A    between atoms: _133  and  _134
REMARK   59  A    between atoms: _133  and  _136
REMARK   60  A    between atoms: _136  and  _137
REMARK   61  A    between atoms: _137  and  _138
REMARK   62  A    between atoms: _140  and  _142
REMARK   63  A    between atoms: _142  and  _143
REMARK   64  A    between atoms: _142  and  _145
REMARK   65  A    between atoms: _145  and  _146
REMARK   66  A    between atoms: _149  and  _151
REMARK   67  A    between atoms: _151  and  _152
REMARK   68  A    between atoms: _154  and  _156
REMARK   69  A    between atoms: _156  and  _157
REMARK   70  A    between atoms: _159  and  _161
REMARK   71  A    between atoms: _161  and  _162
REMARK   72  A    between atoms: _161  and  _164
REMARK   73  A    between atoms: _164  and  _165
REMARK   74  A    between atoms: _168  and  _170
REMARK   75  A    between atoms: _170  and  _171
REMARK   76  A    between atoms: _173  and  _175
REMARK   77  A    between atoms: _175  and  _176
REMARK   78  A    between atoms: _178  and  _180
REMARK   79  A    between atoms: _180  and  _181
REMARK   80  A    between atoms: _180  and  _183
REMARK   81  A    between atoms: _183  and  _184
REMARK   82  A    between atoms: _190  and  _192
REMARK   83  A    between atoms: _192  and  _193
REMARK   84  A    between atoms: _192  and  _195
REMARK   85  A    between atoms: _195  and  _196
REMARK   86  A    between atoms: _199  and  _201
REMARK   87  A    between atoms: _201  and  _202
REMARK   88  A    between atoms: _201  and  _204
REMARK   89  A    between atoms: _207  and  _209
REMARK   90  A    between atoms: _209  and  _210
REMARK   91  A    between atoms: _209  and  _212
REMARK   92  A    between atoms: _212  and  _213
REMARK   93  A    between atoms: _216  and  _218
REMARK   94  A    between atoms: _218  and  _219
REMARK   95  A    between atoms: _218  and  _221
REMARK   96  A    between atoms: _221  and  _222
REMARK   97  A    between atoms: _226  and  _227
REMARK   98  A    between atoms: _232  and  _234
REMARK   99  A    between atoms: _234  and  _235
REMARK  100  A    between atoms: _234  and  _237
REMARK  101  A    between atoms: _240  and  _242
REMARK  102  A    between atoms: _242  and  _243
REMARK  103  A    between atoms: _242  and  _245
REMARK  104  A    between atoms: _245  and  _246
REMARK  105  A    between atoms: _251  and  _253
REMARK  106  A    between atoms: _253  and  _254
REMARK  107  A    between atoms: _253  and  _256
REMARK  108  A    between atoms: _256  and  _257
REMARK  109  A    between atoms: _260  and  _262
REMARK  110  A    between atoms: _262  and  _263
REMARK  111  A    between atoms: _262  and  _265
REMARK  112  A    between atoms: _265  and  _266
REMARK  113  A    between atoms: _269  and  _271
REMARK  114  A    between atoms: _271  and  _272
REMARK  115  A    between atoms: _274  and  _276
REMARK  116  A    between atoms: _276  and  _277
REMARK  117  A    between atoms: _276  and  _279
REMARK  118  A    between atoms: _279  and  _280
REMARK  119  A    between atoms: _280  and  _281
REMARK  120  A    between atoms: _281  and  _282
REMARK  121  A    between atoms: _291  and  _293
REMARK  122  A    between atoms: _293  and  _294
REMARK  123  A    between atoms: _293  and  _296
REMARK  124  A    between atoms: _296  and  _297
REMARK  125  A    between atoms: _302  and  _304
REMARK  126  A    between atoms: _304  and  _305
REMARK  127  A    between atoms: _304  and  _307
REMARK  128  A    between atoms: _307  and  _308
REMARK  129  A    between atoms: _308  and  _309
REMARK  130  A    between atoms: _309  and  _310
REMARK  131  A    between atoms: _319  and  _321
REMARK  132  A    between atoms: _321  and  _322
REMARK  133  A    between atoms: _321  and  _324
REMARK  134  A    between atoms: _324  and  _325
REMARK  135  A    between atoms: _328  and  _330
REMARK  136  A    between atoms: _330  and  _331
REMARK  137  A    between atoms: _330  and  _333
REMARK  138  A    between atoms: _333  and  _334
REMARK  139  A    between atoms: _337  and  _339
REMARK  140  A    between atoms: _339  and  _340
REMARK  141  A    between atoms: _339  and  _342
REMARK  142  A    between atoms: _342  and  _343
REMARK  143  A    between atoms: _346  and  _348
REMARK  144  A    between atoms: _348  and  _349
REMARK  145  A    between atoms: _348  and  _351
REMARK  146  A    between atoms: _351  and  _352
REMARK  147  A    between atoms: _355  and  _357
REMARK  148  A    between atoms: _357  and  _358
REMARK  149  A    between atoms: _357  and  _360
REMARK  150  A    between atoms: _360  and  _361
REMARK  151  A    between atoms: _364  and  _366
REMARK  152  A    between atoms: _366  and  _367
REMARK  153  A    between atoms: _369  and  _371
REMARK  154  A    between atoms: _371  and  _372
REMARK  155  A    between atoms: _375  and  _377
REMARK  156  A    between atoms: _377  and  _378
REMARK  157  A    between atoms: _377  and  _380
REMARK  158  A    between atoms: _380  and  _381
REMARK  159  A    between atoms: _384  and  _386
REMARK  160  A    between atoms: _386  and  _387
REMARK  161  A    between atoms: _386  and  _389
REMARK  162  A    between atoms: _389  and  _390
REMARK  163  A    between atoms: _393  and  _395
REMARK  164  A    between atoms: _395  and  _396
REMARK  165  A    between atoms: _395  and  _398
REMARK  166  A    between atoms: _398  and  _399
REMARK  167  A    between atoms: _402  and  _404
REMARK  168  A    between atoms: _404  and  _405
REMARK  169  A    between atoms: _404  and  _407
REMARK  170  A    between atoms: _410  and  _412
REMARK  171  A    between atoms: _412  and  _413
REMARK  172  A    between atoms: _412  and  _415
REMARK  173  A    between atoms: _415  and  _416
REMARK  174  A    between atoms: _419  and  _421
REMARK  175  A    between atoms: _421  and  _422
REMARK  176  A    between atoms: _421  and  _424
REMARK  177  A    between atoms: _424  and  _425
REMARK  178  A    between atoms: _425  and  _426
REMARK  179  A    between atoms: _426  and  _427
REMARK  180  A    between atoms: _427  and  _428
REMARK  181  A    between atoms: _432  and  _434
REMARK  182  A    between atoms: _434  and  _435
REMARK  183  A    between atoms: _434  and  _437
REMARK  184  A    between atoms: _437  and  _438
REMARK  185  A    between atoms: _438  and  _439
REMARK  186  A    between atoms: _441  and  _443
REMARK  187  A    between atoms: _443  and  _444
REMARK  188  A    between atoms: _443  and  _446
REMARK  189  A    between atoms: _446  and  _447
REMARK  190  A    between atoms: _450  and  _452
REMARK  191  A    between atoms: _452  and  _453
REMARK  192  A    between atoms: _455  and  _457
REMARK  193  A    between atoms: _457  and  _458
REMARK  194  A    between atoms: _460  and  _462
REMARK  195  A    between atoms: _462  and  _463
REMARK  196  A    between atoms: _462  and  _465
REMARK  197  A    between atoms: _465  and  _466
REMARK  198  A    between atoms: _469  and  _471
REMARK  199  A    between atoms: _471  and  _472
REMARK  200  A    between atoms: _474  and  _476
REMARK  201  A    between atoms: _476  and  _477
REMARK  202  A    between atoms: _479  and  _481
REMARK  203  A    between atoms: _481  and  _482
REMARK  204  A    between atoms: _481  and  _484
REMARK  205  A    between atoms: _484  and  _485
REMARK  206  A    between atoms: _491  and  _493
REMARK  207  A    between atoms: _493  and  _494
REMARK  208  A    between atoms: _493  and  _496
REMARK  209  A    between atoms: _496  and  _497
REMARK  210  A    between atoms: _500  and  _502
REMARK  211  A    between atoms: _502  and  _503
REMARK  212  A    between atoms: _502  and  _505
REMARK  213  A    between atoms: _508  and  _510
REMARK  214  A    between atoms: _510  and  _511
REMARK  215  A    between atoms: _510  and  _513
REMARK  216  A    between atoms: _513  and  _514
REMARK  217  A    between atoms: _517  and  _519
REMARK  218  A    between atoms: _519  and  _520
REMARK  219  A    between atoms: _519  and  _522
REMARK  220  A    between atoms: _522  and  _523
REMARK  221  A    between atoms: _527  and  _528
REMARK  222  A    between atoms: _533  and  _535
REMARK  223  A    between atoms: _535  and  _536
REMARK  224  A    between atoms: _535  and  _538
REMARK  225  A    between atoms: _541  and  _543
REMARK  226  A    between atoms: _543  and  _544
REMARK  227  A    between atoms: _543  and  _546
REMARK  228  A    between atoms: _546  and  _547
REMARK  229  A    between atoms: _552  and  _554
REMARK  230  A    between atoms: _554  and  _555
REMARK  231  A    between atoms: _554  and  _557
REMARK  232  A    between atoms: _557  and  _558
REMARK  233  A    between atoms: _561  and  _563
REMARK  234  A    between atoms: _563  and  _564
REMARK  235  A    between atoms: _563  and  _566
REMARK  236  A    between atoms: _566  and  _567
REMARK  237  A    between atoms: _570  and  _572
REMARK  238  A    between atoms: _572  and  _573
REMARK  239  A    between atoms: _575  and  _577
REMARK  240  A    between atoms: _577  and  _578
REMARK  241  A    between atoms: _577  and  _580
REMARK  242  A    between atoms: _580  and  _581
REMARK  243  A    between atoms: _581  and  _582
REMARK  244  A    between atoms: _582  and  _583
REMARK  245  A    between atoms: _592  and  _594
REMARK  246  A    between atoms: _594  and  _595
REMARK  247  A    between atoms: _594  and  _597
REMARK  248  A    between atoms: _597  and  _598
REMARK                            x       y       z     vdW  Elec       q    Type
REMARK                         _______ _______ _______ _____ _____    ______ ____
ROOT
ATOM      1  O   HOH     1       6.693  15.866   3.524  0.00  0.00    +0.000 OA
ENDROOT
TORSDOF 0
REMARK  Name = ../refined-set-2016/1d4h/1d4h_pocket.pdb
REMARK  248 active torsions:
REMARK  status: ('A' for Active; 'I' for Inactive)
REMARK    1  A    between atoms: _1  and  _3
REMARK    2  A    between atoms: _3  and  _4
REMARK    3  A    between atoms: _3  and  _6
REMARK    4  A    between atoms: _6  and  _7
REMARK    5  A    between atoms: _7  and  _8
REMARK    6  A    between atoms: _8  and  _9
REMARK    7  A    between atoms: _18  and  _20
REMARK    8  A    between atoms: _20  and  _21
REMARK    9  A    between atoms: _20  and  _23
REMARK   10  A    between atoms: _23  and  _24
REMARK   11  A    between atoms: _27  and  _29
REMARK   12  A    between atoms: _29  and  _30
REMARK   13  A    between atoms: _29  and  _32
REMARK   14  A    between atoms: _32  and  _33
REMARK   15  A    between atoms: _36  and  _38
REMARK   16  A    between atoms: _38  and  _39
REMARK   17  A    between atoms: _38  and  _41
REMARK   18  A    between atoms: _41  and  _42
REMARK   19  A    between atoms: _45  and  _47
REMARK   20  A    between atoms: _47  and  _48
REMARK   21  A    between atoms: _47  and  _50
REMARK   22  A    between atoms: _50  and  _51
REMARK   23  A    between atoms: _54  and  _56
REMARK   24  A    between atoms: _56  and  _57
REMARK   25  A    between atoms: _56  and  _59
REMARK   26  A    between atoms: _59  and  _60
REMARK   27  A    between atoms: _63  and  _65
REMARK   28  A    between atoms: _65  and  _66
REMARK   29  A    between atoms: _68  and  _70
REMARK   30  A    between atoms: _70  and  _71
REMARK   31  A    between atoms: _74  and  _76
REMARK   32  A    between atoms: _76  and  _77
REMARK   33  A    between atoms: _76  and  _79
REMARK   34  A    between atoms: _79  and  _80
REMARK   35  A    between atoms: _83  and  _85
REMARK   36  A    between atoms: _85  and  _86
REMARK   37  A    between atoms: _85  and  _88
REMARK   38  A    between atoms: _88  and  _89
REMARK   39  A    between atoms: _92  and  _94
REMARK   40  A    between atoms: _94  and  _95
REMARK   41  A    between atoms: _94  and  _97
REMARK   42  A    between atoms: _97  and  _98
REMARK   43  A    between atoms: _101  and  _103
REMARK   44  A    between atoms: _103  and  _104
REMARK   45  A    between atoms: _103  and  _106
REMARK   46  A    between atoms: _109  and  _111
REMARK   47  A    between atoms: _111  and  _112
REMARK   48  A    between atoms: _111  and  _114
REMARK   49  A    between atoms: _114  and  _115
REMARK   50  A    between atoms: _118  and  _120
REMARK   51  A    between atoms: _120  and  _121
REMARK   52  A    between atoms: _120  and  _123
REMARK   53  A    between atoms: _123  and  _124
REMARK   54  A    between atoms: _124  and  _125
REMARK   55  A    between atoms: _125  and  _126
REMARK   56  A    between atoms: _126  and  _127
REMARK   57  A    between atoms: _131  and  _133
REMARK   58  A    between atoms: _133  and  _134
REMARK   59  A    between atoms: _133  and  _136
REMARK   60  A    between atoms: _136  and  _137
REMARK   61  A    between atoms: _137  and  _138
REMARK   62  A    between atoms: _140  and  _142
REMARK   63  A    between atoms: _142  and  _143
REMARK   64  A    between atoms: _142  and  _145
REMARK   65  A    between atoms: _145  and  _146
REMARK   66  A    between atoms: _149  and  _151
REMARK   67  A    between atoms: _151  and  _152
REMARK   68  A    between atoms: _154  and  _156
REMARK   69  A    between atoms: _156  and  _157
REMARK   70  A    between atoms: _159  and  _161
REMARK   71  A    between atoms: _161  and  _162
REMARK   72  A    between atoms: _161  and  _164
REMARK   73  A    between atoms: _164  and  _165
REMARK   74  A    between atoms: _168  and  _170
REMARK   75  A    between atoms: _170  and  _171
REMARK   76  A    between atoms: _173  and  _175
REMARK   77  A    between atoms: _175  and  _176
REMARK   78  A    between atoms: _178  and  _180
REMARK   79  A    between atoms: _180  and  _181
REMARK   80  A    between atoms: _180  and  _183
REMARK   81  A    between atoms: _183  and  _184
REMARK   82  A    between atoms: _190  and  _192
REMARK   83  A    between atoms: _192  and  _193
REMARK   84  A    between atoms: _192  and  _195
REMARK   85  A    between atoms: _195  and  _196
REMARK   86  A    between atoms: _199  and  _201
REMARK   87  A    between atoms: _201  and  _202
REMARK   88  A    between atoms: _201  and  _204
REMARK   89  A    between atoms: _207  and  _209
REMARK   90  A    between atoms: _209  and  _210
REMARK   91  A    between atoms: _209  and  _212
REMARK   92  A    between atoms: _212  and  _213
REMARK   93  A    between atoms: _216  and  _218
REMARK   94  A    between atoms: _218  and  _219
REMARK   95  A    between atoms: _218  and  _221
REMARK   96  A    between atoms: _221  and  _222
REMARK   97  A    between atoms: _226  and  _227
REMARK   98  A    between atoms: _232  and  _234
REMARK   99  A    between atoms: _234  and  _235
REMARK  100  A    between atoms: _234  and  _237
REMARK  101  A    between atoms: _240  and  _242
REMARK  102  A    between atoms: _242  and  _243
REMARK  103  A    between atoms: _242  and  _245
REMARK  104  A    between atoms: _245  and  _246
REMARK  105  A    between atoms: _251  and  _253
REMARK  106  A    between atoms: _253  and  _254
REMARK  107  A    between atoms: _253  and  _256
REMARK  108  A    between atoms: _256  and  _257
REMARK  109  A    between atoms: _260  and  _262
REMARK  110  A    between atoms: _262  and  _263
REMARK  111  A    between atoms: _262  and  _265
REMARK  112  A    between atoms: _265  and  _266
REMARK  113  A    between atoms: _269  and  _271
REMARK  114  A    between atoms: _271  and  _272
REMARK  115  A    between atoms: _274  and  _276
REMARK  116  A    between atoms: _276  and  _277
REMARK  117  A    between atoms: _276  and  _279
REMARK  118  A    between atoms: _279  and  _280
REMARK  119  A    between atoms: _280  and  _281
REMARK  120  A    between atoms: _281  and  _282
REMARK  121  A    between atoms: _291  and  _293
REMARK  122  A    between atoms: _293  and  _294
REMARK  123  A    between atoms: _293  and  _296
REMARK  124  A    between atoms: _296  and  _297
REMARK  125  A    between atoms: _302  and  _304
REMARK  126  A    between atoms: _304  and  _305
REMARK  127  A    between atoms: _304  and  _307
REMARK  128  A    between atoms: _307  and  _308
REMARK  129  A    between atoms: _308  and  _309
REMARK  130  A    between atoms: _309  and  _310
REMARK  131  A    between atoms: _319  and  _321
REMARK  132  A    between atoms: _321  and  _322
REMARK  133  A    between atoms: _321  and  _324
REMARK  134  A    between atoms: _324  and  _325
REMARK  135  A    between atoms: _328  and  _330
REMARK  136  A    between atoms: _330  and  _331
REMARK  137  A    between atoms: _330  and  _333
REMARK  138  A    between atoms: _333  and  _334
REMARK  139  A    between atoms: _337  and  _339
REMARK  140  A    between atoms: _339  and  _340
REMARK  141  A    between atoms: _339  and  _342
REMARK  142  A    between atoms: _342  and  _343
REMARK  143  A    between atoms: _346  and  _348
REMARK  144  A    between atoms: _348  and  _349
REMARK  145  A    between atoms: _348  and  _351
REMARK  146  A    between atoms: _351  and  _352
REMARK  147  A    between atoms: _355  and  _357
REMARK  148  A    between atoms: _357  and  _358
REMARK  149  A    between atoms: _357  and  _360
REMARK  150  A    between atoms: _360  and  _361
REMARK  151  A    between atoms: _364  and  _366
REMARK  152  A    between atoms: _366  and  _367
REMARK  153  A    between atoms: _369  and  _371
REMARK  154  A    between atoms: _371  and  _372
REMARK  155  A    between atoms: _375  and  _377
REMARK  156  A    between atoms: _377  and  _378
REMARK  157  A    between atoms: _377  and  _380
REMARK  158  A    between atoms: _380  and  _381
REMARK  159  A    between atoms: _384  and  _386
REMARK  160  A    between atoms: _386  and  _387
REMARK  161  A    between atoms: _386  and  _389
REMARK  162  A    between atoms: _389  and  _390
REMARK  163  A    between atoms: _393  and  _395
REMARK  164  A    between atoms: _395  and  _396
REMARK  165  A    between atoms: _395  and  _398
REMARK  166  A    between atoms: _398  and  _399
REMARK  167  A    between atoms: _402  and  _404
REMARK  168  A    between atoms: _404  and  _405
REMARK  169  A    between atoms: _404  and  _407
REMARK  170  A    between atoms: _410  and  _412
REMARK  171  A    between atoms: _412  and  _413
REMARK  172  A    between atoms: _412  and  _415
REMARK  173  A    between atoms: _415  and  _416
REMARK  174  A    between atoms: _419  and  _421
REMARK  175  A    between atoms: _421  and  _422
REMARK  176  A    between atoms: _421  and  _424
REMARK  177  A    between atoms: _424  and  _425
REMARK  178  A    between atoms: _425  and  _426
REMARK  179  A    between atoms: _426  and  _427
REMARK  180  A    between atoms: _427  and  _428
REMARK  181  A    between atoms: _432  and  _434
REMARK  182  A    between atoms: _434  and  _435
REMARK  183  A    between atoms: _434  and  _437
REMARK  184  A    between atoms: _437  and  _438
REMARK  185  A    between atoms: _438  and  _439
REMARK  186  A    between atoms: _441  and  _443
REMARK  187  A    between atoms: _443  and  _444
REMARK  188  A    between atoms: _443  and  _446
REMARK  189  A    between atoms: _446  and  _447
REMARK  190  A    between atoms: _450  and  _452
REMARK  191  A    between atoms: _452  and  _453
REMARK  192  A    between atoms: _455  and  _457
REMARK  193  A    between atoms: _457  and  _458
REMARK  194  A    between atoms: _460  and  _462
REMARK  195  A    between atoms: _462  and  _463
REMARK  196  A    between atoms: _462  and  _465
REMARK  197  A    between atoms: _465  and  _466
REMARK  198  A    between atoms: _469  and  _471
REMARK  199  A    between atoms: _471  and  _472
REMARK  200  A    between atoms: _474  and  _476
REMARK  201  A    between atoms: _476  and  _477
REMARK  202  A    between atoms: _479  and  _481
REMARK  203  A    between atoms: _481  and  _482
REMARK  204  A    between atoms: _481  and  _484
REMARK  205  A    between atoms: _484  and  _485
REMARK  206  A    between atoms: _491  and  _493
REMARK  207  A    between atoms: _493  and  _494
REMARK  208  A    between atoms: _493  and  _496
REMARK  209  A    between atoms: _496  and  _497
REMARK  210  A    between atoms: _500  and  _502
REMARK  211  A    between atoms: _502  and  _503
REMARK  212  A    between atoms: _502  and  _505
REMARK  213  A    between atoms: _508  and  _510
REMARK  214  A    between atoms: _510  and  _511
REMARK  215  A    between atoms: _510  and  _513
REMARK  216  A    between atoms: _513  and  _514
REMARK  217  A    between atoms: _517  and  _519
REMARK  218  A    between atoms: _519  and  _520
REMARK  219  A    between atoms: _519  and  _522
REMARK  220  A    between atoms: _522  and  _523
REMARK  221  A    between atoms: _527  and  _528
REMARK  222  A    between atoms: _533  and  _535
REMARK  223  A    between atoms: _535  and  _536
REMARK  224  A    between atoms: _535  and  _538
REMARK  225  A    between atoms: _541  and  _543
REMARK  226  A    between atoms: _543  and  _544
REMARK  227  A    between atoms: _543  and  _546
REMARK  228  A    between atoms: _546  and  _547
REMARK  229  A    between atoms: _552  and  _554
REMARK  230  A    between atoms: _554  and  _555
REMARK  231  A    between atoms: _554  and  _557
REMARK  232  A    between atoms: _557  and  _558
REMARK  233  A    between atoms: _561  and  _563
REMARK  234  A    between atoms: _563  and  _564
REMARK  235  A    between atoms: _563  and  _566
REMARK  236  A    between atoms: _566  and  _567
REMARK  237  A    between atoms: _570  and  _572
REMARK  238  A    between atoms: _572  and  _573
REMARK  239  A    between atoms: _575  and  _577
REMARK  240  A    between atoms: _577  and  _578
REMARK  241  A    between atoms: _577  and  _580
REMARK  242  A    between atoms: _580  and  _581
REMARK  243  A    between atoms: _581  and  _582
REMARK  244  A    between atoms: _582  and  _583
REMARK  245  A    between atoms: _592  and  _594
REMARK  246  A    between atoms: _594  and  _595
REMARK  247  A    between atoms: _594  and  _597
REMARK  248  A    between atoms: _597  and  _598
REMARK                            x       y       z     vdW  Elec       q    Type
REMARK                         _______ _______ _______ _____ _____    ______ ____
ROOT
ATOM      1  O   HOH     1       6.296  26.330  -5.298  0.00  0.00    +0.000 OA
ENDROOT
TORSDOF 0
REMARK  Name = ../refined-set-2016/1d4h/1d4h_pocket.pdb
REMARK  248 active torsions:
REMARK  status: ('A' for Active; 'I' for Inactive)
REMARK    1  A    between atoms: _1  and  _3
REMARK    2  A    between atoms: _3  and  _4
REMARK    3  A    between atoms: _3  and  _6
REMARK    4  A    between atoms: _6  and  _7
REMARK    5  A    between atoms: _7  and  _8
REMARK    6  A    between atoms: _8  and  _9
REMARK    7  A    between atoms: _18  and  _20
REMARK    8  A    between atoms: _20  and  _21
REMARK    9  A    between atoms: _20  and  _23
REMARK   10  A    between atoms: _23  and  _24
REMARK   11  A    between atoms: _27  and  _29
REMARK   12  A    between atoms: _29  and  _30
REMARK   13  A    between atoms: _29  and  _32
REMARK   14  A    between atoms: _32  and  _33
REMARK   15  A    between atoms: _36  and  _38
REMARK   16  A    between atoms: _38  and  _39
REMARK   17  A    between atoms: _38  and  _41
REMARK   18  A    between atoms: _41  and  _42
REMARK   19  A    between atoms: _45  and  _47
REMARK   20  A    between atoms: _47  and  _48
REMARK   21  A    between atoms: _47  and  _50
REMARK   22  A    between atoms: _50  and  _51
REMARK   23  A    between atoms: _54  and  _56
REMARK   24  A    between atoms: _56  and  _57
REMARK   25  A    between atoms: _56  and  _59
REMARK   26  A    between atoms: _59  and  _60
REMARK   27  A    between atoms: _63  and  _65
REMARK   28  A    between atoms: _65  and  _66
REMARK   29  A    between atoms: _68  and  _70
REMARK   30  A    between atoms: _70  and  _71
REMARK   31  A    between atoms: _74  and  _76
REMARK   32  A    between atoms: _76  and  _77
REMARK   33  A    between atoms: _76  and  _79
REMARK   34  A    between atoms: _79  and  _80
REMARK   35  A    between atoms: _83  and  _85
REMARK   36  A    between atoms: _85  and  _86
REMARK   37  A    between atoms: _85  and  _88
REMARK   38  A    between atoms: _88  and  _89
REMARK   39  A    between atoms: _92  and  _94
REMARK   40  A    between atoms: _94  and  _95
REMARK   41  A    between atoms: _94  and  _97
REMARK   42  A    between atoms: _97  and  _98
REMARK   43  A    between atoms: _101  and  _103
REMARK   44  A    between atoms: _103  and  _104
REMARK   45  A    between atoms: _103  and  _106
REMARK   46  A    between atoms: _109  and  _111
REMARK   47  A    between atoms: _111  and  _112
REMARK   48  A    between atoms: _111  and  _114
REMARK   49  A    between atoms: _114  and  _115
REMARK   50  A    between atoms: _118  and  _120
REMARK   51  A    between atoms: _120  and  _121
REMARK   52  A    between atoms: _120  and  _123
REMARK   53  A    between atoms: _123  and  _124
REMARK   54  A    between atoms: _124  and  _125
REMARK   55  A    between atoms: _125  and  _126
REMARK   56  A    between atoms: _126  and  _127
REMARK   57  A    between atoms: _131  and  _133
REMARK   58  A    between atoms: _133  and  _134
REMARK   59  A    between atoms: _133  and  _136
REMARK   60  A    between atoms: _136  and  _137
REMARK   61  A    between atoms: _137  and  _138
REMARK   62  A    between atoms: _140  and  _142
REMARK   63  A    between atoms: _142  and  _143
REMARK   64  A    between atoms: _142  and  _145
REMARK   65  A    between atoms: _145  and  _146
REMARK   66  A    between atoms: _149  and  _151
REMARK   67  A    between atoms: _151  and  _152
REMARK   68  A    between atoms: _154  and  _156
REMARK   69  A    between atoms: _156  and  _157
REMARK   70  A    between atoms: _159  and  _161
REMARK   71  A    between atoms: _161  and  _162
REMARK   72  A    between atoms: _161  and  _164
REMARK   73  A    between atoms: _164  and  _165
REMARK   74  A    between atoms: _168  and  _170
REMARK   75  A    between atoms: _170  and  _171
REMARK   76  A    between atoms: _173  and  _175
REMARK   77  A    between atoms: _175  and  _176
REMARK   78  A    between atoms: _178  and  _180
REMARK   79  A    between atoms: _180  and  _181
REMARK   80  A    between atoms: _180  and  _183
REMARK   81  A    between atoms: _183  and  _184
REMARK   82  A    between atoms: _190  and  _192
REMARK   83  A    between atoms: _192  and  _193
REMARK   84  A    between atoms: _192  and  _195
REMARK   85  A    between atoms: _195  and  _196
REMARK   86  A    between atoms: _199  and  _201
REMARK   87  A    between atoms: _201  and  _202
REMARK   88  A    between atoms: _201  and  _204
REMARK   89  A    between atoms: _207  and  _209
REMARK   90  A    between atoms: _209  and  _210
REMARK   91  A    between atoms: _209  and  _212
REMARK   92  A    between atoms: _212  and  _213
REMARK   93  A    between atoms: _216  and  _218
REMARK   94  A    between atoms: _218  and  _219
REMARK   95  A    between atoms: _218  and  _221
REMARK   96  A    between atoms: _221  and  _222
REMARK   97  A    between atoms: _226  and  _227
REMARK   98  A    between atoms: _232  and  _234
REMARK   99  A    between atoms: _234  and  _235
REMARK  100  A    between atoms: _234  and  _237
REMARK  101  A    between atoms: _240  and  _242
REMARK  102  A    between atoms: _242  and  _243
REMARK  103  A    between atoms: _242  and  _245
REMARK  104  A    between atoms: _245  and  _246
REMARK  105  A    between atoms: _251  and  _253
REMARK  106  A    between atoms: _253  and  _254
REMARK  107  A    between atoms: _253  and  _256
REMARK  108  A    between atoms: _256  and  _257
REMARK  109  A    between atoms: _260  and  _262
REMARK  110  A    between atoms: _262  and  _263
REMARK  111  A    between atoms: _262  and  _265
REMARK  112  A    between atoms: _265  and  _266
REMARK  113  A    between atoms: _269  and  _271
REMARK  114  A    between atoms: _271  and  _272
REMARK  115  A    between atoms: _274  and  _276
REMARK  116  A    between atoms: _276  and  _277
REMARK  117  A    between atoms: _276  and  _279
REMARK  118  A    between atoms: _279  and  _280
REMARK  119  A    between atoms: _280  and  _281
REMARK  120  A    between atoms: _281  and  _282
REMARK  121  A    between atoms: _291  and  _293
REMARK  122  A    between atoms: _293  and  _294
REMARK  123  A    between atoms: _293  and  _296
REMARK  124  A    between atoms: _296  and  _297
REMARK  125  A    between atoms: _302  and  _304
REMARK  126  A    between atoms: _304  and  _305
REMARK  127  A    between atoms: _304  and  _307
REMARK  128  A    between atoms: _307  and  _308
REMARK  129  A    between atoms: _308  and  _309
REMARK  130  A    between atoms: _309  and  _310
REMARK  131  A    between atoms: _319  and  _321
REMARK  132  A    between atoms: _321  and  _322
REMARK  133  A    between atoms: _321  and  _324
REMARK  134  A    between atoms: _324  and  _325
REMARK  135  A    between atoms: _328  and  _330
REMARK  136  A    between atoms: _330  and  _331
REMARK  137  A    between atoms: _330  and  _333
REMARK  138  A    between atoms: _333  and  _334
REMARK  139  A    between atoms: _337  and  _339
REMARK  140  A    between atoms: _339  and  _340
REMARK  141  A    between atoms: _339  and  _342
REMARK  142  A    between atoms: _342  and  _343
REMARK  143  A    between atoms: _346  and  _348
REMARK  144  A    between atoms: _348  and  _349
REMARK  145  A    between atoms: _348  and  _351
REMARK  146  A    between atoms: _351  and  _352
REMARK  147  A    between atoms: _355  and  _357
REMARK  148  A    between atoms: _357  and  _358
REMARK  149  A    between atoms: _357  and  _360
REMARK  150  A    between atoms: _360  and  _361
REMARK  151  A    between atoms: _364  and  _366
REMARK  152  A    between atoms: _366  and  _367
REMARK  153  A    between atoms: _369  and  _371
REMARK  154  A    between atoms: _371  and  _372
REMARK  155  A    between atoms: _375  and  _377
REMARK  156  A    between atoms: _377  and  _378
REMARK  157  A    between atoms: _377  and  _380
REMARK  158  A    between atoms: _380  and  _381
REMARK  159  A    between atoms: _384  and  _386
REMARK  160  A    between atoms: _386  and  _387
REMARK  161  A    between atoms: _386  and  _389
REMARK  162  A    between atoms: _389  and  _390
REMARK  163  A    between atoms: _393  and  _395
REMARK  164  A    between atoms: _395  and  _396
REMARK  165  A    between atoms: _395  and  _398
REMARK  166  A    between atoms: _398  and  _399
REMARK  167  A    between atoms: _402  and  _404
REMARK  168  A    between atoms: _404  and  _405
REMARK  169  A    between atoms: _404  and  _407
REMARK  170  A    between atoms: _410  and  _412
REMARK  171  A    between atoms: _412  and  _413
REMARK  172  A    between atoms: _412  and  _415
REMARK  173  A    between atoms: _415  and  _416
REMARK  174  A    between atoms: _419  and  _421
REMARK  175  A    between atoms: _421  and  _422
REMARK  176  A    between atoms: _421  and  _424
REMARK  177  A    between atoms: _424  and  _425
REMARK  178  A    between atoms: _425  and  _426
REMARK  179  A    between atoms: _426  and  _427
REMARK  180  A    between atoms: _427  and  _428
REMARK  181  A    between atoms: _432  and  _434
REMARK  182  A    between atoms: _434  and  _435
REMARK  183  A    between atoms: _434  and  _437
REMARK  184  A    between atoms: _437  and  _438
REMARK  185  A    between atoms: _438  and  _439
REMARK  186  A    between atoms: _441  and  _443
REMARK  187  A    between atoms: _443  and  _444
REMARK  188  A    between atoms: _443  and  _446
REMARK  189  A    between atoms: _446  and  _447
REMARK  190  A    between atoms: _450  and  _452
REMARK  191  A    between atoms: _452  and  _453
REMARK  192  A    between atoms: _455  and  _457
REMARK  193  A    between atoms: _457  and  _458
REMARK  194  A    between atoms: _460  and  _462
REMARK  195  A    between atoms: _462  and  _463
REMARK  196  A    between atoms: _462  and  _465
REMARK  197  A    between atoms: _465  and  _466
REMARK  198  A    between atoms: _469  and  _471
REMARK  199  A    between atoms: _471  and  _472
REMARK  200  A    between atoms: _474  and  _476
REMARK  201  A    between atoms: _476  and  _477
REMARK  202  A    between atoms: _479  and  _481
REMARK  203  A    between atoms: _481  and  _482
REMARK  204  A    between atoms: _481  and  _484
REMARK  205  A    between atoms: _484  and  _485
REMARK  206  A    between atoms: _491  and  _493
REMARK  207  A    between atoms: _493  and  _494
REMARK  208  A    between atoms: _493  and  _496
REMARK  209  A    between atoms: _496  and  _497
REMARK  210  A    between atoms: _500  and  _502
REMARK  211  A    between atoms: _502  and  _503
REMARK  212  A    between atoms: _502  and  _505
REMARK  213  A    between atoms: _508  and  _510
REMARK  214  A    between atoms: _510  and  _511
REMARK  215  A    between atoms: _510  and  _513
REMARK  216  A    between atoms: _513  and  _514
REMARK  217  A    between atoms: _517  and  _519
REMARK  218  A    between atoms: _519  and  _520
REMARK  219  A    between atoms: _519  and  _522
REMARK  220  A    between atoms: _522  and  _523
REMARK  221  A    between atoms: _527  and  _528
REMARK  222  A    between atoms: _533  and  _535
REMARK  223  A    between atoms: _535  and  _536
REMARK  224  A    between atoms: _535  and  _538
REMARK  225  A    between atoms: _541  and  _543
REMARK  226  A    between atoms: _543  and  _544
REMARK  227  A    between atoms: _543  and  _546
REMARK  228  A    between atoms: _546  and  _547
REMARK  229  A    between atoms: _552  and  _554
REMARK  230  A    between atoms: _554  and  _555
REMARK  231  A    between atoms: _554  and  _557
REMARK  232  A    between atoms: _557  and  _558
REMARK  233  A    between atoms: _561  and  _563
REMARK  234  A    between atoms: _563  and  _564
REMARK  235  A    between atoms: _563  and  _566
REMARK  236  A    between atoms: _566  and  _567
REMARK  237  A    between atoms: _570  and  _572
REMARK  238  A    between atoms: _572  and  _573
REMARK  239  A    between atoms: _575  and  _577
REMARK  240  A    between atoms: _577  and  _578
REMARK  241  A    between atoms: _577  and  _580
REMARK  242  A    between atoms: _580  and  _581
REMARK  243  A    between atoms: _581  and  _582
REMARK  244  A    between atoms: _582  and  _583
REMARK  245  A    between atoms: _592  and  _594
REMARK  246  A    between atoms: _594  and  _595
REMARK  247  A    between atoms: _594  and  _597
REMARK  248  A    between atoms: _597  and  _598
REMARK                            x       y       z     vdW  Elec       q    Type
REMARK                         _______ _______ _______ _____ _____    ______ ____
ROOT
ATOM      1  O   HOH     1      22.370  12.728  -1.536  0.00  0.00    +0.000 OA
ENDROOT
TORSDOF 0
REMARK  Name = ../refined-set-2016/1d4h/1d4h_pocket.pdb
REMARK  248 active torsions:
REMARK  status: ('A' for Active; 'I' for Inactive)
REMARK    1  A    between atoms: _1  and  _3
REMARK    2  A    between atoms: _3  and  _4
REMARK    3  A    between atoms: _3  and  _6
REMARK    4  A    between atoms: _6  and  _7
REMARK    5  A    between atoms: _7  and  _8
REMARK    6  A    between atoms: _8  and  _9
REMARK    7  A    between atoms: _18  and  _20
REMARK    8  A    between atoms: _20  and  _21
REMARK    9  A    between atoms: _20  and  _23
REMARK   10  A    between atoms: _23  and  _24
REMARK   11  A    between atoms: _27  and  _29
REMARK   12  A    between atoms: _29  and  _30
REMARK   13  A    between atoms: _29  and  _32
REMARK   14  A    between atoms: _32  and  _33
REMARK   15  A    between atoms: _36  and  _38
REMARK   16  A    between atoms: _38  and  _39
REMARK   17  A    between atoms: _38  and  _41
REMARK   18  A    between atoms: _41  and  _42
REMARK   19  A    between atoms: _45  and  _47
REMARK   20  A    between atoms: _47  and  _48
REMARK   21  A    between atoms: _47  and  _50
REMARK   22  A    between atoms: _50  and  _51
REMARK   23  A    between atoms: _54  and  _56
REMARK   24  A    between atoms: _56  and  _57
REMARK   25  A    between atoms: _56  and  _59
REMARK   26  A    between atoms: _59  and  _60
REMARK   27  A    between atoms: _63  and  _65
REMARK   28  A    between atoms: _65  and  _66
REMARK   29  A    between atoms: _68  and  _70
REMARK   30  A    between atoms: _70  and  _71
REMARK   31  A    between atoms: _74  and  _76
REMARK   32  A    between atoms: _76  and  _77
REMARK   33  A    between atoms: _76  and  _79
REMARK   34  A    between atoms: _79  and  _80
REMARK   35  A    between atoms: _83  and  _85
REMARK   36  A    between atoms: _85  and  _86
REMARK   37  A    between atoms: _85  and  _88
REMARK   38  A    between atoms: _88  and  _89
REMARK   39  A    between atoms: _92  and  _94
REMARK   40  A    between atoms: _94  and  _95
REMARK   41  A    between atoms: _94  and  _97
REMARK   42  A    between atoms: _97  and  _98
REMARK   43  A    between atoms: _101  and  _103
REMARK   44  A    between atoms: _103  and  _104
REMARK   45  A    between atoms: _103  and  _106
REMARK   46  A    between atoms: _109  and  _111
REMARK   47  A    between atoms: _111  and  _112
REMARK   48  A    between atoms: _111  and  _114
REMARK   49  A    between atoms: _114  and  _115
REMARK   50  A    between atoms: _118  and  _120
REMARK   51  A    between atoms: _120  and  _121
REMARK   52  A    between atoms: _120  and  _123
REMARK   53  A    between atoms: _123  and  _124
REMARK   54  A    between atoms: _124  and  _125
REMARK   55  A    between atoms: _125  and  _126
REMARK   56  A    between atoms: _126  and  _127
REMARK   57  A    between atoms: _131  and  _133
REMARK   58  A    between atoms: _133  and  _134
REMARK   59  A    between atoms: _133  and  _136
REMARK   60  A    between atoms: _136  and  _137
REMARK   61  A    between atoms: _137  and  _138
REMARK   62  A    between atoms: _140  and  _142
REMARK   63  A    between atoms: _142  and  _143
REMARK   64  A    between atoms: _142  and  _145
REMARK   65  A    between atoms: _145  and  _146
REMARK   66  A    between atoms: _149  and  _151
REMARK   67  A    between atoms: _151  and  _152
REMARK   68  A    between atoms: _154  and  _156
REMARK   69  A    between atoms: _156  and  _157
REMARK   70  A    between atoms: _159  and  _161
REMARK   71  A    between atoms: _161  and  _162
REMARK   72  A    between atoms: _161  and  _164
REMARK   73  A    between atoms: _164  and  _165
REMARK   74  A    between atoms: _168  and  _170
REMARK   75  A    between atoms: _170  and  _171
REMARK   76  A    between atoms: _173  and  _175
REMARK   77  A    between atoms: _175  and  _176
REMARK   78  A    between atoms: _178  and  _180
REMARK   79  A    between atoms: _180  and  _181
REMARK   80  A    between atoms: _180  and  _183
REMARK   81  A    between atoms: _183  and  _184
REMARK   82  A    between atoms: _190  and  _192
REMARK   83  A    between atoms: _192  and  _193
REMARK   84  A    between atoms: _192  and  _195
REMARK   85  A    between atoms: _195  and  _196
REMARK   86  A    between atoms: _199  and  _201
REMARK   87  A    between atoms: _201  and  _202
REMARK   88  A    between atoms: _201  and  _204
REMARK   89  A    between atoms: _207  and  _209
REMARK   90  A    between atoms: _209  and  _210
REMARK   91  A    between atoms: _209  and  _212
REMARK   92  A    between atoms: _212  and  _213
REMARK   93  A    between atoms: _216  and  _218
REMARK   94  A    between atoms: _218  and  _219
REMARK   95  A    between atoms: _218  and  _221
REMARK   96  A    between atoms: _221  and  _222
REMARK   97  A    between atoms: _226  and  _227
REMARK   98  A    between atoms: _232  and  _234
REMARK   99  A    between atoms: _234  and  _235
REMARK  100  A    between atoms: _234  and  _237
REMARK  101  A    between atoms: _240  and  _242
REMARK  102  A    between atoms: _242  and  _243
REMARK  103  A    between atoms: _242  and  _245
REMARK  104  A    between atoms: _245  and  _246
REMARK  105  A    between atoms: _251  and  _253
REMARK  106  A    between atoms: _253  and  _254
REMARK  107  A    between atoms: _253  and  _256
REMARK  108  A    between atoms: _256  and  _257
REMARK  109  A    between atoms: _260  and  _262
REMARK  110  A    between atoms: _262  and  _263
REMARK  111  A    between atoms: _262  and  _265
REMARK  112  A    between atoms: _265  and  _266
REMARK  113  A    between atoms: _269  and  _271
REMARK  114  A    between atoms: _271  and  _272
REMARK  115  A    between atoms: _274  and  _276
REMARK  116  A    between atoms: _276  and  _277
REMARK  117  A    between atoms: _276  and  _279
REMARK  118  A    between atoms: _279  and  _280
REMARK  119  A    between atoms: _280  and  _281
REMARK  120  A    between atoms: _281  and  _282
REMARK  121  A    between atoms: _291  and  _293
REMARK  122  A    between atoms: _293  and  _294
REMARK  123  A    between atoms: _293  and  _296
REMARK  124  A    between atoms: _296  and  _297
REMARK  125  A    between atoms: _302  and  _304
REMARK  126  A    between atoms: _304  and  _305
REMARK  127  A    between atoms: _304  and  _307
REMARK  128  A    between atoms: _307  and  _308
REMARK  129  A    between atoms: _308  and  _309
REMARK  130  A    between atoms: _309  and  _310
REMARK  131  A    between atoms: _319  and  _321
REMARK  132  A    between atoms: _321  and  _322
REMARK  133  A    between atoms: _321  and  _324
REMARK  134  A    between atoms: _324  and  _325
REMARK  135  A    between atoms: _328  and  _330
REMARK  136  A    between atoms: _330  and  _331
REMARK  137  A    between atoms: _330  and  _333
REMARK  138  A    between atoms: _333  and  _334
REMARK  139  A    between atoms: _337  and  _339
REMARK  140  A    between atoms: _339  and  _340
REMARK  141  A    between atoms: _339  and  _342
REMARK  142  A    between atoms: _342  and  _343
REMARK  143  A    between atoms: _346  and  _348
REMARK  144  A    between atoms: _348  and  _349
REMARK  145  A    between atoms: _348  and  _351
REMARK  146  A    between atoms: _351  and  _352
REMARK  147  A    between atoms: _355  and  _357
REMARK  148  A    between atoms: _357  and  _358
REMARK  149  A    between atoms: _357  and  _360
REMARK  150  A    between atoms: _360  and  _361
REMARK  151  A    between atoms: _364  and  _366
REMARK  152  A    between atoms: _366  and  _367
REMARK  153  A    between atoms: _369  and  _371
REMARK  154  A    between atoms: _371  and  _372
REMARK  155  A    between atoms: _375  and  _377
REMARK  156  A    between atoms: _377  and  _378
REMARK  157  A    between atoms: _377  and  _380
REMARK  158  A    between atoms: _380  and  _381
REMARK  159  A    between atoms: _384  and  _386
REMARK  160  A    between atoms: _386  and  _387
REMARK  161  A    between atoms: _386  and  _389
REMARK  162  A    between atoms: _389  and  _390
REMARK  163  A    between atoms: _393  and  _395
REMARK  164  A    between atoms: _395  and  _396
REMARK  165  A    between atoms: _395  and  _398
REMARK  166  A    between atoms: _398  and  _399
REMARK  167  A    between atoms: _402  and  _404
REMARK  168  A    between atoms: _404  and  _405
REMARK  169  A    between atoms: _404  and  _407
REMARK  170  A    between atoms: _410  and  _412
REMARK  171  A    between atoms: _412  and  _413
REMARK  172  A    between atoms: _412  and  _415
REMARK  173  A    between atoms: _415  and  _416
REMARK  174  A    between atoms: _419  and  _421
REMARK  175  A    between atoms: _421  and  _422
REMARK  176  A    between atoms: _421  and  _424
REMARK  177  A    between atoms: _424  and  _425
REMARK  178  A    between atoms: _425  and  _426
REMARK  179  A    between atoms: _426  and  _427
REMARK  180  A    between atoms: _427  and  _428
REMARK  181  A    between atoms: _432  and  _434
REMARK  182  A    between atoms: _434  and  _435
REMARK  183  A    between atoms: _434  and  _437
REMARK  184  A    between atoms: _437  and  _438
REMARK  185  A    between atoms: _438  and  _439
REMARK  186  A    between atoms: _441  and  _443
REMARK  187  A    between atoms: _443  and  _444
REMARK  188  A    between atoms: _443  and  _446
REMARK  189  A    between atoms: _446  and  _447
REMARK  190  A    between atoms: _450  and  _452
REMARK  191  A    between atoms: _452  and  _453
REMARK  192  A    between atoms: _455  and  _457
REMARK  193  A    between atoms: _457  and  _458
REMARK  194  A    between atoms: _460  and  _462
REMARK  195  A    between atoms: _462  and  _463
REMARK  196  A    between atoms: _462  and  _465
REMARK  197  A    between atoms: _465  and  _466
REMARK  198  A    between atoms: _469  and  _471
REMARK  199  A    between atoms: _471  and  _472
REMARK  200  A    between atoms: _474  and  _476
REMARK  201  A    between atoms: _476  and  _477
REMARK  202  A    between atoms: _479  and  _481
REMARK  203  A    between atoms: _481  and  _482
REMARK  204  A    between atoms: _481  and  _484
REMARK  205  A    between atoms: _484  and  _485
REMARK  206  A    between atoms: _491  and  _493
REMARK  207  A    between atoms: _493  and  _494
REMARK  208  A    between atoms: _493  and  _496
REMARK  209  A    between atoms: _496  and  _497
REMARK  210  A    between atoms: _500  and  _502
REMARK  211  A    between atoms: _502  and  _503
REMARK  212  A    between atoms: _502  and  _505
REMARK  213  A    between atoms: _508  and  _510
REMARK  214  A    between atoms: _510  and  _511
REMARK  215  A    between atoms: _510  and  _513
REMARK  216  A    between atoms: _513  and  _514
REMARK  217  A    between atoms: _517  and  _519
REMARK  218  A    between atoms: _519  and  _520
REMARK  219  A    between atoms: _519  and  _522
REMARK  220  A    between atoms: _522  and  _523
REMARK  221  A    between atoms: _527  and  _528
REMARK  222  A    between atoms: _533  and  _535
REMARK  223  A    between atoms: _535  and  _536
REMARK  224  A    between atoms: _535  and  _538
REMARK  225  A    between atoms: _541  and  _543
REMARK  226  A    between atoms: _543  and  _544
REMARK  227  A    between atoms: _543  and  _546
REMARK  228  A    between atoms: _546  and  _547
REMARK  229  A    between atoms: _552  and  _554
REMARK  230  A    between atoms: _554  and  _555
REMARK  231  A    between atoms: _554  and  _557
REMARK  232  A    between atoms: _557  and  _558
REMARK  233  A    between atoms: _561  and  _563
REMARK  234  A    between atoms: _563  and  _564
REMARK  235  A    between atoms: _563  and  _566
REMARK  236  A    between atoms: _566  and  _567
REMARK  237  A    between atoms: _570  and  _572
REMARK  238  A    between atoms: _572  and  _573
REMARK  239  A    between atoms: _575  and  _577
REMARK  240  A    between atoms: _577  and  _578
REMARK  241  A    between atoms: _577  and  _580
REMARK  242  A    between atoms: _580  and  _581
REMARK  243  A    between atoms: _581  and  _582
REMARK  244  A    between atoms: _582  and  _583
REMARK  245  A    between atoms: _592  and  _594
REMARK  246  A    between atoms: _594  and  _595
REMARK  247  A    between atoms: _594  and  _597
REMARK  248  A    between atoms: _597  and  _598
REMARK                            x       y       z     vdW  Elec       q    Type
REMARK                         _______ _______ _______ _____ _____    ______ ____
ROOT
ATOM      1  O   HOH     1       3.081  22.778  -0.797  0.00  0.00    +0.000 OA
ENDROOT
TORSDOF 0
REMARK  Name = ../refined-set-2016/1d4h/1d4h_pocket.pdb
REMARK  248 active torsions:
REMARK  status: ('A' for Active; 'I' for Inactive)
REMARK    1  A    between atoms: _1  and  _3
REMARK    2  A    between atoms: _3  and  _4
REMARK    3  A    between atoms: _3  and  _6
REMARK    4  A    between atoms: _6  and  _7
REMARK    5  A    between atoms: _7  and  _8
REMARK    6  A    between atoms: _8  and  _9
REMARK    7  A    between atoms: _18  and  _20
REMARK    8  A    between atoms: _20  and  _21
REMARK    9  A    between atoms: _20  and  _23
REMARK   10  A    between atoms: _23  and  _24
REMARK   11  A    between atoms: _27  and  _29
REMARK   12  A    between atoms: _29  and  _30
REMARK   13  A    between atoms: _29  and  _32
REMARK   14  A    between atoms: _32  and  _33
REMARK   15  A    between atoms: _36  and  _38
REMARK   16  A    between atoms: _38  and  _39
REMARK   17  A    between atoms: _38  and  _41
REMARK   18  A    between atoms: _41  and  _42
REMARK   19  A    between atoms: _45  and  _47
REMARK   20  A    between atoms: _47  and  _48
REMARK   21  A    between atoms: _47  and  _50
REMARK   22  A    between atoms: _50  and  _51
REMARK   23  A    between atoms: _54  and  _56
REMARK   24  A    between atoms: _56  and  _57
REMARK   25  A    between atoms: _56  and  _59
REMARK   26  A    between atoms: _59  and  _60
REMARK   27  A    between atoms: _63  and  _65
REMARK   28  A    between atoms: _65  and  _66
REMARK   29  A    between atoms: _68  and  _70
REMARK   30  A    between atoms: _70  and  _71
REMARK   31  A    between atoms: _74  and  _76
REMARK   32  A    between atoms: _76  and  _77
REMARK   33  A    between atoms: _76  and  _79
REMARK   34  A    between atoms: _79  and  _80
REMARK   35  A    between atoms: _83  and  _85
REMARK   36  A    between atoms: _85  and  _86
REMARK   37  A    between atoms: _85  and  _88
REMARK   38  A    between atoms: _88  and  _89
REMARK   39  A    between atoms: _92  and  _94
REMARK   40  A    between atoms: _94  and  _95
REMARK   41  A    between atoms: _94  and  _97
REMARK   42  A    between atoms: _97  and  _98
REMARK   43  A    between atoms: _101  and  _103
REMARK   44  A    between atoms: _103  and  _104
REMARK   45  A    between atoms: _103  and  _106
REMARK   46  A    between atoms: _109  and  _111
REMARK   47  A    between atoms: _111  and  _112
REMARK   48  A    between atoms: _111  and  _114
REMARK   49  A    between atoms: _114  and  _115
REMARK   50  A    between atoms: _118  and  _120
REMARK   51  A    between atoms: _120  and  _121
REMARK   52  A    between atoms: _120  and  _123
REMARK   53  A    between atoms: _123  and  _124
REMARK   54  A    between atoms: _124  and  _125
REMARK   55  A    between atoms: _125  and  _126
REMARK   56  A    between atoms: _126  and  _127
REMARK   57  A    between atoms: _131  and  _133
REMARK   58  A    between atoms: _133  and  _134
REMARK   59  A    between atoms: _133  and  _136
REMARK   60  A    between atoms: _136  and  _137
REMARK   61  A    between atoms: _137  and  _138
REMARK   62  A    between atoms: _140  and  _142
REMARK   63  A    between atoms: _142  and  _143
REMARK   64  A    between atoms: _142  and  _145
REMARK   65  A    between atoms: _145  and  _146
REMARK   66  A    between atoms: _149  and  _151
REMARK   67  A    between atoms: _151  and  _152
REMARK   68  A    between atoms: _154  and  _156
REMARK   69  A    between atoms: _156  and  _157
REMARK   70  A    between atoms: _159  and  _161
REMARK   71  A    between atoms: _161  and  _162
REMARK   72  A    between atoms: _161  and  _164
REMARK   73  A    between atoms: _164  and  _165
REMARK   74  A    between atoms: _168  and  _170
REMARK   75  A    between atoms: _170  and  _171
REMARK   76  A    between atoms: _173  and  _175
REMARK   77  A    between atoms: _175  and  _176
REMARK   78  A    between atoms: _178  and  _180
REMARK   79  A    between atoms: _180  and  _181
REMARK   80  A    between atoms: _180  and  _183
REMARK   81  A    between atoms: _183  and  _184
REMARK   82  A    between atoms: _190  and  _192
REMARK   83  A    between atoms: _192  and  _193
REMARK   84  A    between atoms: _192  and  _195
REMARK   85  A    between atoms: _195  and  _196
REMARK   86  A    between atoms: _199  and  _201
REMARK   87  A    between atoms: _201  and  _202
REMARK   88  A    between atoms: _201  and  _204
REMARK   89  A    between atoms: _207  and  _209
REMARK   90  A    between atoms: _209  and  _210
REMARK   91  A    between atoms: _209  and  _212
REMARK   92  A    between atoms: _212  and  _213
REMARK   93  A    between atoms: _216  and  _218
REMARK   94  A    between atoms: _218  and  _219
REMARK   95  A    between atoms: _218  and  _221
REMARK   96  A    between atoms: _221  and  _222
REMARK   97  A    between atoms: _226  and  _227
REMARK   98  A    between atoms: _232  and  _234
REMARK   99  A    between atoms: _234  and  _235
REMARK  100  A    between atoms: _234  and  _237
REMARK  101  A    between atoms: _240  and  _242
REMARK  102  A    between atoms: _242  and  _243
REMARK  103  A    between atoms: _242  and  _245
REMARK  104  A    between atoms: _245  and  _246
REMARK  105  A    between atoms: _251  and  _253
REMARK  106  A    between atoms: _253  and  _254
REMARK  107  A    between atoms: _253  and  _256
REMARK  108  A    between atoms: _256  and  _257
REMARK  109  A    between atoms: _260  and  _262
REMARK  110  A    between atoms: _262  and  _263
REMARK  111  A    between atoms: _262  and  _265
REMARK  112  A    between atoms: _265  and  _266
REMARK  113  A    between atoms: _269  and  _271
REMARK  114  A    between atoms: _271  and  _272
REMARK  115  A    between atoms: _274  and  _276
REMARK  116  A    between atoms: _276  and  _277
REMARK  117  A    between atoms: _276  and  _279
REMARK  118  A    between atoms: _279  and  _280
REMARK  119  A    between atoms: _280  and  _281
REMARK  120  A    between atoms: _281  and  _282
REMARK  121  A    between atoms: _291  and  _293
REMARK  122  A    between atoms: _293  and  _294
REMARK  123  A    between atoms: _293  and  _296
REMARK  124  A    between atoms: _296  and  _297
REMARK  125  A    between atoms: _302  and  _304
REMARK  126  A    between atoms: _304  and  _305
REMARK  127  A    between atoms: _304  and  _307
REMARK  128  A    between atoms: _307  and  _308
REMARK  129  A    between atoms: _308  and  _309
REMARK  130  A    between atoms: _309  and  _310
REMARK  131  A    between atoms: _319  and  _321
REMARK  132  A    between atoms: _321  and  _322
REMARK  133  A    between atoms: _321  and  _324
REMARK  134  A    between atoms: _324  and  _325
REMARK  135  A    between atoms: _328  and  _330
REMARK  136  A    between atoms: _330  and  _331
REMARK  137  A    between atoms: _330  and  _333
REMARK  138  A    between atoms: _333  and  _334
REMARK  139  A    between atoms: _337  and  _339
REMARK  140  A    between atoms: _339  and  _340
REMARK  141  A    between atoms: _339  and  _342
REMARK  142  A    between atoms: _342  and  _343
REMARK  143  A    between atoms: _346  and  _348
REMARK  144  A    between atoms: _348  and  _349
REMARK  145  A    between atoms: _348  and  _351
REMARK  146  A    between atoms: _351  and  _352
REMARK  147  A    between atoms: _355  and  _357
REMARK  148  A    between atoms: _357  and  _358
REMARK  149  A    between atoms: _357  and  _360
REMARK  150  A    between atoms: _360  and  _361
REMARK  151  A    between atoms: _364  and  _366
REMARK  152  A    between atoms: _366  and  _367
REMARK  153  A    between atoms: _369  and  _371
REMARK  154  A    between atoms: _371  and  _372
REMARK  155  A    between atoms: _375  and  _377
REMARK  156  A    between atoms: _377  and  _378
REMARK  157  A    between atoms: _377  and  _380
REMARK  158  A    between atoms: _380  and  _381
REMARK  159  A    between atoms: _384  and  _386
REMARK  160  A    between atoms: _386  and  _387
REMARK  161  A    between atoms: _386  and  _389
REMARK  162  A    between atoms: _389  and  _390
REMARK  163  A    between atoms: _393  and  _395
REMARK  164  A    between atoms: _395  and  _396
REMARK  165  A    between atoms: _395  and  _398
REMARK  166  A    between atoms: _398  and  _399
REMARK  167  A    between atoms: _402  and  _404
REMARK  168  A    between atoms: _404  and  _405
REMARK  169  A    between atoms: _404  and  _407
REMARK  170  A    between atoms: _410  and  _412
REMARK  171  A    between atoms: _412  and  _413
REMARK  172  A    between atoms: _412  and  _415
REMARK  173  A    between atoms: _415  and  _416
REMARK  174  A    between atoms: _419  and  _421
REMARK  175  A    between atoms: _421  and  _422
REMARK  176  A    between atoms: _421  and  _424
REMARK  177  A    between atoms: _424  and  _425
REMARK  178  A    between atoms: _425  and  _426
REMARK  179  A    between atoms: _426  and  _427
REMARK  180  A    between atoms: _427  and  _428
REMARK  181  A    between atoms: _432  and  _434
REMARK  182  A    between atoms: _434  and  _435
REMARK  183  A    between atoms: _434  and  _437
REMARK  184  A    between atoms: _437  and  _438
REMARK  185  A    between atoms: _438  and  _439
REMARK  186  A    between atoms: _441  and  _443
REMARK  187  A    between atoms: _443  and  _444
REMARK  188  A    between atoms: _443  and  _446
REMARK  189  A    between atoms: _446  and  _447
REMARK  190  A    between atoms: _450  and  _452
REMARK  191  A    between atoms: _452  and  _453
REMARK  192  A    between atoms: _455  and  _457
REMARK  193  A    between atoms: _457  and  _458
REMARK  194  A    between atoms: _460  and  _462
REMARK  195  A    between atoms: _462  and  _463
REMARK  196  A    between atoms: _462  and  _465
REMARK  197  A    between atoms: _465  and  _466
REMARK  198  A    between atoms: _469  and  _471
REMARK  199  A    between atoms: _471  and  _472
REMARK  200  A    between atoms: _474  and  _476
REMARK  201  A    between atoms: _476  and  _477
REMARK  202  A    between atoms: _479  and  _481
REMARK  203  A    between atoms: _481  and  _482
REMARK  204  A    between atoms: _481  and  _484
REMARK  205  A    between atoms: _484  and  _485
REMARK  206  A    between atoms: _491  and  _493
REMARK  207  A    between atoms: _493  and  _494
REMARK  208  A    between atoms: _493  and  _496
REMARK  209  A    between atoms: _496  and  _497
REMARK  210  A    between atoms: _500  and  _502
REMARK  211  A    between atoms: _502  and  _503
REMARK  212  A    between atoms: _502  and  _505
REMARK  213  A    between atoms: _508  and  _510
REMARK  214  A    between atoms: _510  and  _511
REMARK  215  A    between atoms: _510  and  _513
REMARK  216  A    between atoms: _513  and  _514
REMARK  217  A    between atoms: _517  and  _519
REMARK  218  A    between atoms: _519  and  _520
REMARK  219  A    between atoms: _519  and  _522
REMARK  220  A    between atoms: _522  and  _523
REMARK  221  A    between atoms: _527  and  _528
REMARK  222  A    between atoms: _533  and  _535
REMARK  223  A    between atoms: _535  and  _536
REMARK  224  A    between atoms: _535  and  _538
REMARK  225  A    between atoms: _541  and  _543
REMARK  226  A    between atoms: _543  and  _544
REMARK  227  A    between atoms: _543  and  _546
REMARK  228  A    between atoms: _546  and  _547
REMARK  229  A    between atoms: _552  and  _554
REMARK  230  A    between atoms: _554  and  _555
REMARK  231  A    between atoms: _554  and  _557
REMARK  232  A    between atoms: _557  and  _558
REMARK  233  A    between atoms: _561  and  _563
REMARK  234  A    between atoms: _563  and  _564
REMARK  235  A    between atoms: _563  and  _566
REMARK  236  A    between atoms: _566  and  _567
REMARK  237  A    between atoms: _570  and  _572
REMARK  238  A    between atoms: _572  and  _573
REMARK  239  A    between atoms: _575  and  _577
REMARK  240  A    between atoms: _577  and  _578
REMARK  241  A    between atoms: _577  and  _580
REMARK  242  A    between atoms: _580  and  _581
REMARK  243  A    between atoms: _581  and  _582
REMARK  244  A    between atoms: _582  and  _583
REMARK  245  A    between atoms: _592  and  _594
REMARK  246  A    between atoms: _594  and  _595
REMARK  247  A    between atoms: _594  and  _597
REMARK  248  A    between atoms: _597  and  _598
REMARK                            x       y       z     vdW  Elec       q    Type
REMARK                         _______ _______ _______ _____ _____    ______ ____
ROOT
ATOM      1  O   HOH     1      18.385  14.395   6.641  0.00  0.00    +0.000 OA
ENDROOT
TORSDOF 0
REMARK  Name = ../refined-set-2016/1d4h/1d4h_pocket.pdb
REMARK  248 active torsions:
REMARK  status: ('A' for Active; 'I' for Inactive)
REMARK    1  A    between atoms: _1  and  _3
REMARK    2  A    between atoms: _3  and  _4
REMARK    3  A    between atoms: _3  and  _6
REMARK    4  A    between atoms: _6  and  _7
REMARK    5  A    between atoms: _7  and  _8
REMARK    6  A    between atoms: _8  and  _9
REMARK    7  A    between atoms: _18  and  _20
REMARK    8  A    between atoms: _20  and  _21
REMARK    9  A    between atoms: _20  and  _23
REMARK   10  A    between atoms: _23  and  _24
REMARK   11  A    between atoms: _27  and  _29
REMARK   12  A    between atoms: _29  and  _30
REMARK   13  A    between atoms: _29  and  _32
REMARK   14  A    between atoms: _32  and  _33
REMARK   15  A    between atoms: _36  and  _38
REMARK   16  A    between atoms: _38  and  _39
REMARK   17  A    between atoms: _38  and  _41
REMARK   18  A    between atoms: _41  and  _42
REMARK   19  A    between atoms: _45  and  _47
REMARK   20  A    between atoms: _47  and  _48
REMARK   21  A    between atoms: _47  and  _50
REMARK   22  A    between atoms: _50  and  _51
REMARK   23  A    between atoms: _54  and  _56
REMARK   24  A    between atoms: _56  and  _57
REMARK   25  A    between atoms: _56  and  _59
REMARK   26  A    between atoms: _59  and  _60
REMARK   27  A    between atoms: _63  and  _65
REMARK   28  A    between atoms: _65  and  _66
REMARK   29  A    between atoms: _68  and  _70
REMARK   30  A    between atoms: _70  and  _71
REMARK   31  A    between atoms: _74  and  _76
REMARK   32  A    between atoms: _76  and  _77
REMARK   33  A    between atoms: _76  and  _79
REMARK   34  A    between atoms: _79  and  _80
REMARK   35  A    between atoms: _83  and  _85
REMARK   36  A    between atoms: _85  and  _86
REMARK   37  A    between atoms: _85  and  _88
REMARK   38  A    between atoms: _88  and  _89
REMARK   39  A    between atoms: _92  and  _94
REMARK   40  A    between atoms: _94  and  _95
REMARK   41  A    between atoms: _94  and  _97
REMARK   42  A    between atoms: _97  and  _98
REMARK   43  A    between atoms: _101  and  _103
REMARK   44  A    between atoms: _103  and  _104
REMARK   45  A    between atoms: _103  and  _106
REMARK   46  A    between atoms: _109  and  _111
REMARK   47  A    between atoms: _111  and  _112
REMARK   48  A    between atoms: _111  and  _114
REMARK   49  A    between atoms: _114  and  _115
REMARK   50  A    between atoms: _118  and  _120
REMARK   51  A    between atoms: _120  and  _121
REMARK   52  A    between atoms: _120  and  _123
REMARK   53  A    between atoms: _123  and  _124
REMARK   54  A    between atoms: _124  and  _125
REMARK   55  A    between atoms: _125  and  _126
REMARK   56  A    between atoms: _126  and  _127
REMARK   57  A    between atoms: _131  and  _133
REMARK   58  A    between atoms: _133  and  _134
REMARK   59  A    between atoms: _133  and  _136
REMARK   60  A    between atoms: _136  and  _137
REMARK   61  A    between atoms: _137  and  _138
REMARK   62  A    between atoms: _140  and  _142
REMARK   63  A    between atoms: _142  and  _143
REMARK   64  A    between atoms: _142  and  _145
REMARK   65  A    between atoms: _145  and  _146
REMARK   66  A    between atoms: _149  and  _151
REMARK   67  A    between atoms: _151  and  _152
REMARK   68  A    between atoms: _154  and  _156
REMARK   69  A    between atoms: _156  and  _157
REMARK   70  A    between atoms: _159  and  _161
REMARK   71  A    between atoms: _161  and  _162
REMARK   72  A    between atoms: _161  and  _164
REMARK   73  A    between atoms: _164  and  _165
REMARK   74  A    between atoms: _168  and  _170
REMARK   75  A    between atoms: _170  and  _171
REMARK   76  A    between atoms: _173  and  _175
REMARK   77  A    between atoms: _175  and  _176
REMARK   78  A    between atoms: _178  and  _180
REMARK   79  A    between atoms: _180  and  _181
REMARK   80  A    between atoms: _180  and  _183
REMARK   81  A    between atoms: _183  and  _184
REMARK   82  A    between atoms: _190  and  _192
REMARK   83  A    between atoms: _192  and  _193
REMARK   84  A    between atoms: _192  and  _195
REMARK   85  A    between atoms: _195  and  _196
REMARK   86  A    between atoms: _199  and  _201
REMARK   87  A    between atoms: _201  and  _202
REMARK   88  A    between atoms: _201  and  _204
REMARK   89  A    between atoms: _207  and  _209
REMARK   90  A    between atoms: _209  and  _210
REMARK   91  A    between atoms: _209  and  _212
REMARK   92  A    between atoms: _212  and  _213
REMARK   93  A    between atoms: _216  and  _218
REMARK   94  A    between atoms: _218  and  _219
REMARK   95  A    between atoms: _218  and  _221
REMARK   96  A    between atoms: _221  and  _222
REMARK   97  A    between atoms: _226  and  _227
REMARK   98  A    between atoms: _232  and  _234
REMARK   99  A    between atoms: _234  and  _235
REMARK  100  A    between atoms: _234  and  _237
REMARK  101  A    between atoms: _240  and  _242
REMARK  102  A    between atoms: _242  and  _243
REMARK  103  A    between atoms: _242  and  _245
REMARK  104  A    between atoms: _245  and  _246
REMARK  105  A    between atoms: _251  and  _253
REMARK  106  A    between atoms: _253  and  _254
REMARK  107  A    between atoms: _253  and  _256
REMARK  108  A    between atoms: _256  and  _257
REMARK  109  A    between atoms: _260  and  _262
REMARK  110  A    between atoms: _262  and  _263
REMARK  111  A    between atoms: _262  and  _265
REMARK  112  A    between atoms: _265  and  _266
REMARK  113  A    between atoms: _269  and  _271
REMARK  114  A    between atoms: _271  and  _272
REMARK  115  A    between atoms: _274  and  _276
REMARK  116  A    between atoms: _276  and  _277
REMARK  117  A    between atoms: _276  and  _279
REMARK  118  A    between atoms: _279  and  _280
REMARK  119  A    between atoms: _280  and  _281
REMARK  120  A    between atoms: _281  and  _282
REMARK  121  A    between atoms: _291  and  _293
REMARK  122  A    between atoms: _293  and  _294
REMARK  123  A    between atoms: _293  and  _296
REMARK  124  A    between atoms: _296  and  _297
REMARK  125  A    between atoms: _302  and  _304
REMARK  126  A    between atoms: _304  and  _305
REMARK  127  A    between atoms: _304  and  _307
REMARK  128  A    between atoms: _307  and  _308
REMARK  129  A    between atoms: _308  and  _309
REMARK  130  A    between atoms: _309  and  _310
REMARK  131  A    between atoms: _319  and  _321
REMARK  132  A    between atoms: _321  and  _322
REMARK  133  A    between atoms: _321  and  _324
REMARK  134  A    between atoms: _324  and  _325
REMARK  135  A    between atoms: _328  and  _330
REMARK  136  A    between atoms: _330  and  _331
REMARK  137  A    between atoms: _330  and  _333
REMARK  138  A    between atoms: _333  and  _334
REMARK  139  A    between atoms: _337  and  _339
REMARK  140  A    between atoms: _339  and  _340
REMARK  141  A    between atoms: _339  and  _342
REMARK  142  A    between atoms: _342  and  _343
REMARK  143  A    between atoms: _346  and  _348
REMARK  144  A    between atoms: _348  and  _349
REMARK  145  A    between atoms: _348  and  _351
REMARK  146  A    between atoms: _351  and  _352
REMARK  147  A    between atoms: _355  and  _357
REMARK  148  A    between atoms: _357  and  _358
REMARK  149  A    between atoms: _357  and  _360
REMARK  150  A    between atoms: _360  and  _361
REMARK  151  A    between atoms: _364  and  _366
REMARK  152  A    between atoms: _366  and  _367
REMARK  153  A    between atoms: _369  and  _371
REMARK  154  A    between atoms: _371  and  _372
REMARK  155  A    between atoms: _375  and  _377
REMARK  156  A    between atoms: _377  and  _378
REMARK  157  A    between atoms: _377  and  _380
REMARK  158  A    between atoms: _380  and  _381
REMARK  159  A    between atoms: _384  and  _386
REMARK  160  A    between atoms: _386  and  _387
REMARK  161  A    between atoms: _386  and  _389
REMARK  162  A    between atoms: _389  and  _390
REMARK  163  A    between atoms: _393  and  _395
REMARK  164  A    between atoms: _395  and  _396
REMARK  165  A    between atoms: _395  and  _398
REMARK  166  A    between atoms: _398  and  _399
REMARK  167  A    between atoms: _402  and  _404
REMARK  168  A    between atoms: _404  and  _405
REMARK  169  A    between atoms: _404  and  _407
REMARK  170  A    between atoms: _410  and  _412
REMARK  171  A    between atoms: _412  and  _413
REMARK  172  A    between atoms: _412  and  _415
REMARK  173  A    between atoms: _415  and  _416
REMARK  174  A    between atoms: _419  and  _421
REMARK  175  A    between atoms: _421  and  _422
REMARK  176  A    between atoms: _421  and  _424
REMARK  177  A    between atoms: _424  and  _425
REMARK  178  A    between atoms: _425  and  _426
REMARK  179  A    between atoms: _426  and  _427
REMARK  180  A    between atoms: _427  and  _428
REMARK  181  A    between atoms: _432  and  _434
REMARK  182  A    between atoms: _434  and  _435
REMARK  183  A    between atoms: _434  and  _437
REMARK  184  A    between atoms: _437  and  _438
REMARK  185  A    between atoms: _438  and  _439
REMARK  186  A    between atoms: _441  and  _443
REMARK  187  A    between atoms: _443  and  _444
REMARK  188  A    between atoms: _443  and  _446
REMARK  189  A    between atoms: _446  and  _447
REMARK  190  A    between atoms: _450  and  _452
REMARK  191  A    between atoms: _452  and  _453
REMARK  192  A    between atoms: _455  and  _457
REMARK  193  A    between atoms: _457  and  _458
REMARK  194  A    between atoms: _460  and  _462
REMARK  195  A    between atoms: _462  and  _463
REMARK  196  A    between atoms: _462  and  _465
REMARK  197  A    between atoms: _465  and  _466
REMARK  198  A    between atoms: _469  and  _471
REMARK  199  A    between atoms: _471  and  _472
REMARK  200  A    between atoms: _474  and  _476
REMARK  201  A    between atoms: _476  and  _477
REMARK  202  A    between atoms: _479  and  _481
REMARK  203  A    between atoms: _481  and  _482
REMARK  204  A    between atoms: _481  and  _484
REMARK  205  A    between atoms: _484  and  _485
REMARK  206  A    between atoms: _491  and  _493
REMARK  207  A    between atoms: _493  and  _494
REMARK  208  A    between atoms: _493  and  _496
REMARK  209  A    between atoms: _496  and  _497
REMARK  210  A    between atoms: _500  and  _502
REMARK  211  A    between atoms: _502  and  _503
REMARK  212  A    between atoms: _502  and  _505
REMARK  213  A    between atoms: _508  and  _510
REMARK  214  A    between atoms: _510  and  _511
REMARK  215  A    between atoms: _510  and  _513
REMARK  216  A    between atoms: _513  and  _514
REMARK  217  A    between atoms: _517  and  _519
REMARK  218  A    between atoms: _519  and  _520
REMARK  219  A    between atoms: _519  and  _522
REMARK  220  A    between atoms: _522  and  _523
REMARK  221  A    between atoms: _527  and  _528
REMARK  222  A    between atoms: _533  and  _535
REMARK  223  A    between atoms: _535  and  _536
REMARK  224  A    between atoms: _535  and  _538
REMARK  225  A    between atoms: _541  and  _543
REMARK  226  A    between atoms: _543  and  _544
REMARK  227  A    between atoms: _543  and  _546
REMARK  228  A    between atoms: _546  and  _547
REMARK  229  A    between atoms: _552  and  _554
REMARK  230  A    between atoms: _554  and  _555
REMARK  231  A    between atoms: _554  and  _557
REMARK  232  A    between atoms: _557  and  _558
REMARK  233  A    between atoms: _561  and  _563
REMARK  234  A    between atoms: _563  and  _564
REMARK  235  A    between atoms: _563  and  _566
REMARK  236  A    between atoms: _566  and  _567
REMARK  237  A    between atoms: _570  and  _572
REMARK  238  A    between atoms: _572  and  _573
REMARK  239  A    between atoms: _575  and  _577
REMARK  240  A    between atoms: _577  and  _578
REMARK  241  A    between atoms: _577  and  _580
REMARK  242  A    between atoms: _580  and  _581
REMARK  243  A    between atoms: _581  and  _582
REMARK  244  A    between atoms: _582  and  _583
REMARK  245  A    between atoms: _592  and  _594
REMARK  246  A    between atoms: _594  and  _595
REMARK  247  A    between atoms: _594  and  _597
REMARK  248  A    between atoms: _597  and  _598
REMARK                            x       y       z     vdW  Elec       q    Type
REMARK                         _______ _______ _______ _____ _____    ______ ____
ROOT
ATOM      1  O   HOH     1      18.128  16.479   8.333  0.00  0.00    +0.000 OA
ENDROOT
TORSDOF 0
REMARK  Name = ../refined-set-2016/1d4h/1d4h_pocket.pdb
REMARK  248 active torsions:
REMARK  status: ('A' for Active; 'I' for Inactive)
REMARK    1  A    between atoms: _1  and  _3
REMARK    2  A    between atoms: _3  and  _4
REMARK    3  A    between atoms: _3  and  _6
REMARK    4  A    between atoms: _6  and  _7
REMARK    5  A    between atoms: _7  and  _8
REMARK    6  A    between atoms: _8  and  _9
REMARK    7  A    between atoms: _18  and  _20
REMARK    8  A    between atoms: _20  and  _21
REMARK    9  A    between atoms: _20  and  _23
REMARK   10  A    between atoms: _23  and  _24
REMARK   11  A    between atoms: _27  and  _29
REMARK   12  A    between atoms: _29  and  _30
REMARK   13  A    between atoms: _29  and  _32
REMARK   14  A    between atoms: _32  and  _33
REMARK   15  A    between atoms: _36  and  _38
REMARK   16  A    between atoms: _38  and  _39
REMARK   17  A    between atoms: _38  and  _41
REMARK   18  A    between atoms: _41  and  _42
REMARK   19  A    between atoms: _45  and  _47
REMARK   20  A    between atoms: _47  and  _48
REMARK   21  A    between atoms: _47  and  _50
REMARK   22  A    between atoms: _50  and  _51
REMARK   23  A    between atoms: _54  and  _56
REMARK   24  A    between atoms: _56  and  _57
REMARK   25  A    between atoms: _56  and  _59
REMARK   26  A    between atoms: _59  and  _60
REMARK   27  A    between atoms: _63  and  _65
REMARK   28  A    between atoms: _65  and  _66
REMARK   29  A    between atoms: _68  and  _70
REMARK   30  A    between atoms: _70  and  _71
REMARK   31  A    between atoms: _74  and  _76
REMARK   32  A    between atoms: _76  and  _77
REMARK   33  A    between atoms: _76  and  _79
REMARK   34  A    between atoms: _79  and  _80
REMARK   35  A    between atoms: _83  and  _85
REMARK   36  A    between atoms: _85  and  _86
REMARK   37  A    between atoms: _85  and  _88
REMARK   38  A    between atoms: _88  and  _89
REMARK   39  A    between atoms: _92  and  _94
REMARK   40  A    between atoms: _94  and  _95
REMARK   41  A    between atoms: _94  and  _97
REMARK   42  A    between atoms: _97  and  _98
REMARK   43  A    between atoms: _101  and  _103
REMARK   44  A    between atoms: _103  and  _104
REMARK   45  A    between atoms: _103  and  _106
REMARK   46  A    between atoms: _109  and  _111
REMARK   47  A    between atoms: _111  and  _112
REMARK   48  A    between atoms: _111  and  _114
REMARK   49  A    between atoms: _114  and  _115
REMARK   50  A    between atoms: _118  and  _120
REMARK   51  A    between atoms: _120  and  _121
REMARK   52  A    between atoms: _120  and  _123
REMARK   53  A    between atoms: _123  and  _124
REMARK   54  A    between atoms: _124  and  _125
REMARK   55  A    between atoms: _125  and  _126
REMARK   56  A    between atoms: _126  and  _127
REMARK   57  A    between atoms: _131  and  _133
REMARK   58  A    between atoms: _133  and  _134
REMARK   59  A    between atoms: _133  and  _136
REMARK   60  A    between atoms: _136  and  _137
REMARK   61  A    between atoms: _137  and  _138
REMARK   62  A    between atoms: _140  and  _142
REMARK   63  A    between atoms: _142  and  _143
REMARK   64  A    between atoms: _142  and  _145
REMARK   65  A    between atoms: _145  and  _146
REMARK   66  A    between atoms: _149  and  _151
REMARK   67  A    between atoms: _151  and  _152
REMARK   68  A    between atoms: _154  and  _156
REMARK   69  A    between atoms: _156  and  _157
REMARK   70  A    between atoms: _159  and  _161
REMARK   71  A    between atoms: _161  and  _162
REMARK   72  A    between atoms: _161  and  _164
REMARK   73  A    between atoms: _164  and  _165
REMARK   74  A    between atoms: _168  and  _170
REMARK   75  A    between atoms: _170  and  _171
REMARK   76  A    between atoms: _173  and  _175
REMARK   77  A    between atoms: _175  and  _176
REMARK   78  A    between atoms: _178  and  _180
REMARK   79  A    between atoms: _180  and  _181
REMARK   80  A    between atoms: _180  and  _183
REMARK   81  A    between atoms: _183  and  _184
REMARK   82  A    between atoms: _190  and  _192
REMARK   83  A    between atoms: _192  and  _193
REMARK   84  A    between atoms: _192  and  _195
REMARK   85  A    between atoms: _195  and  _196
REMARK   86  A    between atoms: _199  and  _201
REMARK   87  A    between atoms: _201  and  _202
REMARK   88  A    between atoms: _201  and  _204
REMARK   89  A    between atoms: _207  and  _209
REMARK   90  A    between atoms: _209  and  _210
REMARK   91  A    between atoms: _209  and  _212
REMARK   92  A    between atoms: _212  and  _213
REMARK   93  A    between atoms: _216  and  _218
REMARK   94  A    between atoms: _218  and  _219
REMARK   95  A    between atoms: _218  and  _221
REMARK   96  A    between atoms: _221  and  _222
REMARK   97  A    between atoms: _226  and  _227
REMARK   98  A    between atoms: _232  and  _234
REMARK   99  A    between atoms: _234  and  _235
REMARK  100  A    between atoms: _234  and  _237
REMARK  101  A    between atoms: _240  and  _242
REMARK  102  A    between atoms: _242  and  _243
REMARK  103  A    between atoms: _242  and  _245
REMARK  104  A    between atoms: _245  and  _246
REMARK  105  A    between atoms: _251  and  _253
REMARK  106  A    between atoms: _253  and  _254
REMARK  107  A    between atoms: _253  and  _256
REMARK  108  A    between atoms: _256  and  _257
REMARK  109  A    between atoms: _260  and  _262
REMARK  110  A    between atoms: _262  and  _263
REMARK  111  A    between atoms: _262  and  _265
REMARK  112  A    between atoms: _265  and  _266
REMARK  113  A    between atoms: _269  and  _271
REMARK  114  A    between atoms: _271  and  _272
REMARK  115  A    between atoms: _274  and  _276
REMARK  116  A    between atoms: _276  and  _277
REMARK  117  A    between atoms: _276  and  _279
REMARK  118  A    between atoms: _279  and  _280
REMARK  119  A    between atoms: _280  and  _281
REMARK  120  A    between atoms: _281  and  _282
REMARK  121  A    between atoms: _291  and  _293
REMARK  122  A    between atoms: _293  and  _294
REMARK  123  A    between atoms: _293  and  _296
REMARK  124  A    between atoms: _296  and  _297
REMARK  125  A    between atoms: _302  and  _304
REMARK  126  A    between atoms: _304  and  _305
REMARK  127  A    between atoms: _304  and  _307
REMARK  128  A    between atoms: _307  and  _308
REMARK  129  A    between atoms: _308  and  _309
REMARK  130  A    between atoms: _309  and  _310
REMARK  131  A    between atoms: _319  and  _321
REMARK  132  A    between atoms: _321  and  _322
REMARK  133  A    between atoms: _321  and  _324
REMARK  134  A    between atoms: _324  and  _325
REMARK  135  A    between atoms: _328  and  _330
REMARK  136  A    between atoms: _330  and  _331
REMARK  137  A    between atoms: _330  and  _333
REMARK  138  A    between atoms: _333  and  _334
REMARK  139  A    between atoms: _337  and  _339
REMARK  140  A    between atoms: _339  and  _340
REMARK  141  A    between atoms: _339  and  _342
REMARK  142  A    between atoms: _342  and  _343
REMARK  143  A    between atoms: _346  and  _348
REMARK  144  A    between atoms: _348  and  _349
REMARK  145  A    between atoms: _348  and  _351
REMARK  146  A    between atoms: _351  and  _352
REMARK  147  A    between atoms: _355  and  _357
REMARK  148  A    between atoms: _357  and  _358
REMARK  149  A    between atoms: _357  and  _360
REMARK  150  A    between atoms: _360  and  _361
REMARK  151  A    between atoms: _364  and  _366
REMARK  152  A    between atoms: _366  and  _367
REMARK  153  A    between atoms: _369  and  _371
REMARK  154  A    between atoms: _371  and  _372
REMARK  155  A    between atoms: _375  and  _377
REMARK  156  A    between atoms: _377  and  _378
REMARK  157  A    between atoms: _377  and  _380
REMARK  158  A    between atoms: _380  and  _381
REMARK  159  A    between atoms: _384  and  _386
REMARK  160  A    between atoms: _386  and  _387
REMARK  161  A    between atoms: _386  and  _389
REMARK  162  A    between atoms: _389  and  _390
REMARK  163  A    between atoms: _393  and  _395
REMARK  164  A    between atoms: _395  and  _396
REMARK  165  A    between atoms: _395  and  _398
REMARK  166  A    between atoms: _398  and  _399
REMARK  167  A    between atoms: _402  and  _404
REMARK  168  A    between atoms: _404  and  _405
REMARK  169  A    between atoms: _404  and  _407
REMARK  170  A    between atoms: _410  and  _412
REMARK  171  A    between atoms: _412  and  _413
REMARK  172  A    between atoms: _412  and  _415
REMARK  173  A    between atoms: _415  and  _416
REMARK  174  A    between atoms: _419  and  _421
REMARK  175  A    between atoms: _421  and  _422
REMARK  176  A    between atoms: _421  and  _424
REMARK  177  A    between atoms: _424  and  _425
REMARK  178  A    between atoms: _425  and  _426
REMARK  179  A    between atoms: _426  and  _427
REMARK  180  A    between atoms: _427  and  _428
REMARK  181  A    between atoms: _432  and  _434
REMARK  182  A    between atoms: _434  and  _435
REMARK  183  A    between atoms: _434  and  _437
REMARK  184  A    between atoms: _437  and  _438
REMARK  185  A    between atoms: _438  and  _439
REMARK  186  A    between atoms: _441  and  _443
REMARK  187  A    between atoms: _443  and  _444
REMARK  188  A    between atoms: _443  and  _446
REMARK  189  A    between atoms: _446  and  _447
REMARK  190  A    between atoms: _450  and  _452
REMARK  191  A    between atoms: _452  and  _453
REMARK  192  A    between atoms: _455  and  _457
REMARK  193  A    between atoms: _457  and  _458
REMARK  194  A    between atoms: _460  and  _462
REMARK  195  A    between atoms: _462  and  _463
REMARK  196  A    between atoms: _462  and  _465
REMARK  197  A    between atoms: _465  and  _466
REMARK  198  A    between atoms: _469  and  _471
REMARK  199  A    between atoms: _471  and  _472
REMARK  200  A    between atoms: _474  and  _476
REMARK  201  A    between atoms: _476  and  _477
REMARK  202  A    between atoms: _479  and  _481
REMARK  203  A    between atoms: _481  and  _482
REMARK  204  A    between atoms: _481  and  _484
REMARK  205  A    between atoms: _484  and  _485
REMARK  206  A    between atoms: _491  and  _493
REMARK  207  A    between atoms: _493  and  _494
REMARK  208  A    between atoms: _493  and  _496
REMARK  209  A    between atoms: _496  and  _497
REMARK  210  A    between atoms: _500  and  _502
REMARK  211  A    between atoms: _502  and  _503
REMARK  212  A    between atoms: _502  and  _505
REMARK  213  A    between atoms: _508  and  _510
REMARK  214  A    between atoms: _510  and  _511
REMARK  215  A    between atoms: _510  and  _513
REMARK  216  A    between atoms: _513  and  _514
REMARK  217  A    between atoms: _517  and  _519
REMARK  218  A    between atoms: _519  and  _520
REMARK  219  A    between atoms: _519  and  _522
REMARK  220  A    between atoms: _522  and  _523
REMARK  221  A    between atoms: _527  and  _528
REMARK  222  A    between atoms: _533  and  _535
REMARK  223  A    between atoms: _535  and  _536
REMARK  224  A    between atoms: _535  and  _538
REMARK  225  A    between atoms: _541  and  _543
REMARK  226  A    between atoms: _543  and  _544
REMARK  227  A    between atoms: _543  and  _546
REMARK  228  A    between atoms: _546  and  _547
REMARK  229  A    between atoms: _552  and  _554
REMARK  230  A    between atoms: _554  and  _555
REMARK  231  A    between atoms: _554  and  _557
REMARK  232  A    between atoms: _557  and  _558
REMARK  233  A    between atoms: _561  and  _563
REMARK  234  A    between atoms: _563  and  _564
REMARK  235  A    between atoms: _563  and  _566
REMARK  236  A    between atoms: _566  and  _567
REMARK  237  A    between atoms: _570  and  _572
REMARK  238  A    between atoms: _572  and  _573
REMARK  239  A    between atoms: _575  and  _577
REMARK  240  A    between atoms: _577  and  _578
REMARK  241  A    between atoms: _577  and  _580
REMARK  242  A    between atoms: _580  and  _581
REMARK  243  A    between atoms: _581  and  _582
REMARK  244  A    between atoms: _582  and  _583
REMARK  245  A    between atoms: _592  and  _594
REMARK  246  A    between atoms: _594  and  _595
REMARK  247  A    between atoms: _594  and  _597
REMARK  248  A    between atoms: _597  and  _598
REMARK                            x       y       z     vdW  Elec       q    Type
REMARK                         _______ _______ _______ _____ _____    ______ ____
ROOT
ATOM      1  O   HOH     1      20.294  14.731   3.972  0.00  0.00    +0.000 OA
ENDROOT
TORSDOF 0
REMARK  Name = ../refined-set-2016/1d4h/1d4h_pocket.pdb
REMARK  248 active torsions:
REMARK  status: ('A' for Active; 'I' for Inactive)
REMARK    1  A    between atoms: _1  and  _3
REMARK    2  A    between atoms: _3  and  _4
REMARK    3  A    between atoms: _3  and  _6
REMARK    4  A    between atoms: _6  and  _7
REMARK    5  A    between atoms: _7  and  _8
REMARK    6  A    between atoms: _8  and  _9
REMARK    7  A    between atoms: _18  and  _20
REMARK    8  A    between atoms: _20  and  _21
REMARK    9  A    between atoms: _20  and  _23
REMARK   10  A    between atoms: _23  and  _24
REMARK   11  A    between atoms: _27  and  _29
REMARK   12  A    between atoms: _29  and  _30
REMARK   13  A    between atoms: _29  and  _32
REMARK   14  A    between atoms: _32  and  _33
REMARK   15  A    between atoms: _36  and  _38
REMARK   16  A    between atoms: _38  and  _39
REMARK   17  A    between atoms: _38  and  _41
REMARK   18  A    between atoms: _41  and  _42
REMARK   19  A    between atoms: _45  and  _47
REMARK   20  A    between atoms: _47  and  _48
REMARK   21  A    between atoms: _47  and  _50
REMARK   22  A    between atoms: _50  and  _51
REMARK   23  A    between atoms: _54  and  _56
REMARK   24  A    between atoms: _56  and  _57
REMARK   25  A    between atoms: _56  and  _59
REMARK   26  A    between atoms: _59  and  _60
REMARK   27  A    between atoms: _63  and  _65
REMARK   28  A    between atoms: _65  and  _66
REMARK   29  A    between atoms: _68  and  _70
REMARK   30  A    between atoms: _70  and  _71
REMARK   31  A    between atoms: _74  and  _76
REMARK   32  A    between atoms: _76  and  _77
REMARK   33  A    between atoms: _76  and  _79
REMARK   34  A    between atoms: _79  and  _80
REMARK   35  A    between atoms: _83  and  _85
REMARK   36  A    between atoms: _85  and  _86
REMARK   37  A    between atoms: _85  and  _88
REMARK   38  A    between atoms: _88  and  _89
REMARK   39  A    between atoms: _92  and  _94
REMARK   40  A    between atoms: _94  and  _95
REMARK   41  A    between atoms: _94  and  _97
REMARK   42  A    between atoms: _97  and  _98
REMARK   43  A    between atoms: _101  and  _103
REMARK   44  A    between atoms: _103  and  _104
REMARK   45  A    between atoms: _103  and  _106
REMARK   46  A    between atoms: _109  and  _111
REMARK   47  A    between atoms: _111  and  _112
REMARK   48  A    between atoms: _111  and  _114
REMARK   49  A    between atoms: _114  and  _115
REMARK   50  A    between atoms: _118  and  _120
REMARK   51  A    between atoms: _120  and  _121
REMARK   52  A    between atoms: _120  and  _123
REMARK   53  A    between atoms: _123  and  _124
REMARK   54  A    between atoms: _124  and  _125
REMARK   55  A    between atoms: _125  and  _126
REMARK   56  A    between atoms: _126  and  _127
REMARK   57  A    between atoms: _131  and  _133
REMARK   58  A    between atoms: _133  and  _134
REMARK   59  A    between atoms: _133  and  _136
REMARK   60  A    between atoms: _136  and  _137
REMARK   61  A    between atoms: _137  and  _138
REMARK   62  A    between atoms: _140  and  _142
REMARK   63  A    between atoms: _142  and  _143
REMARK   64  A    between atoms: _142  and  _145
REMARK   65  A    between atoms: _145  and  _146
REMARK   66  A    between atoms: _149  and  _151
REMARK   67  A    between atoms: _151  and  _152
REMARK   68  A    between atoms: _154  and  _156
REMARK   69  A    between atoms: _156  and  _157
REMARK   70  A    between atoms: _159  and  _161
REMARK   71  A    between atoms: _161  and  _162
REMARK   72  A    between atoms: _161  and  _164
REMARK   73  A    between atoms: _164  and  _165
REMARK   74  A    between atoms: _168  and  _170
REMARK   75  A    between atoms: _170  and  _171
REMARK   76  A    between atoms: _173  and  _175
REMARK   77  A    between atoms: _175  and  _176
REMARK   78  A    between atoms: _178  and  _180
REMARK   79  A    between atoms: _180  and  _181
REMARK   80  A    between atoms: _180  and  _183
REMARK   81  A    between atoms: _183  and  _184
REMARK   82  A    between atoms: _190  and  _192
REMARK   83  A    between atoms: _192  and  _193
REMARK   84  A    between atoms: _192  and  _195
REMARK   85  A    between atoms: _195  and  _196
REMARK   86  A    between atoms: _199  and  _201
REMARK   87  A    between atoms: _201  and  _202
REMARK   88  A    between atoms: _201  and  _204
REMARK   89  A    between atoms: _207  and  _209
REMARK   90  A    between atoms: _209  and  _210
REMARK   91  A    between atoms: _209  and  _212
REMARK   92  A    between atoms: _212  and  _213
REMARK   93  A    between atoms: _216  and  _218
REMARK   94  A    between atoms: _218  and  _219
REMARK   95  A    between atoms: _218  and  _221
REMARK   96  A    between atoms: _221  and  _222
REMARK   97  A    between atoms: _226  and  _227
REMARK   98  A    between atoms: _232  and  _234
REMARK   99  A    between atoms: _234  and  _235
REMARK  100  A    between atoms: _234  and  _237
REMARK  101  A    between atoms: _240  and  _242
REMARK  102  A    between atoms: _242  and  _243
REMARK  103  A    between atoms: _242  and  _245
REMARK  104  A    between atoms: _245  and  _246
REMARK  105  A    between atoms: _251  and  _253
REMARK  106  A    between atoms: _253  and  _254
REMARK  107  A    between atoms: _253  and  _256
REMARK  108  A    between atoms: _256  and  _257
REMARK  109  A    between atoms: _260  and  _262
REMARK  110  A    between atoms: _262  and  _263
REMARK  111  A    between atoms: _262  and  _265
REMARK  112  A    between atoms: _265  and  _266
REMARK  113  A    between atoms: _269  and  _271
REMARK  114  A    between atoms: _271  and  _272
REMARK  115  A    between atoms: _274  and  _276
REMARK  116  A    between atoms: _276  and  _277
REMARK  117  A    between atoms: _276  and  _279
REMARK  118  A    between atoms: _279  and  _280
REMARK  119  A    between atoms: _280  and  _281
REMARK  120  A    between atoms: _281  and  _282
REMARK  121  A    between atoms: _291  and  _293
REMARK  122  A    between atoms: _293  and  _294
REMARK  123  A    between atoms: _293  and  _296
REMARK  124  A    between atoms: _296  and  _297
REMARK  125  A    between atoms: _302  and  _304
REMARK  126  A    between atoms: _304  and  _305
REMARK  127  A    between atoms: _304  and  _307
REMARK  128  A    between atoms: _307  and  _308
REMARK  129  A    between atoms: _308  and  _309
REMARK  130  A    between atoms: _309  and  _310
REMARK  131  A    between atoms: _319  and  _321
REMARK  132  A    between atoms: _321  and  _322
REMARK  133  A    between atoms: _321  and  _324
REMARK  134  A    between atoms: _324  and  _325
REMARK  135  A    between atoms: _328  and  _330
REMARK  136  A    between atoms: _330  and  _331
REMARK  137  A    between atoms: _330  and  _333
REMARK  138  A    between atoms: _333  and  _334
REMARK  139  A    between atoms: _337  and  _339
REMARK  140  A    between atoms: _339  and  _340
REMARK  141  A    between atoms: _339  and  _342
REMARK  142  A    between atoms: _342  and  _343
REMARK  143  A    between atoms: _346  and  _348
REMARK  144  A    between atoms: _348  and  _349
REMARK  145  A    between atoms: _348  and  _351
REMARK  146  A    between atoms: _351  and  _352
REMARK  147  A    between atoms: _355  and  _357
REMARK  148  A    between atoms: _357  and  _358
REMARK  149  A    between atoms: _357  and  _360
REMARK  150  A    between atoms: _360  and  _361
REMARK  151  A    between atoms: _364  and  _366
REMARK  152  A    between atoms: _366  and  _367
REMARK  153  A    between atoms: _369  and  _371
REMARK  154  A    between atoms: _371  and  _372
REMARK  155  A    between atoms: _375  and  _377
REMARK  156  A    between atoms: _377  and  _378
REMARK  157  A    between atoms: _377  and  _380
REMARK  158  A    between atoms: _380  and  _381
REMARK  159  A    between atoms: _384  and  _386
REMARK  160  A    between atoms: _386  and  _387
REMARK  161  A    between atoms: _386  and  _389
REMARK  162  A    between atoms: _389  and  _390
REMARK  163  A    between atoms: _393  and  _395
REMARK  164  A    between atoms: _395  and  _396
REMARK  165  A    between atoms: _395  and  _398
REMARK  166  A    between atoms: _398  and  _399
REMARK  167  A    between atoms: _402  and  _404
REMARK  168  A    between atoms: _404  and  _405
REMARK  169  A    between atoms: _404  and  _407
REMARK  170  A    between atoms: _410  and  _412
REMARK  171  A    between atoms: _412  and  _413
REMARK  172  A    between atoms: _412  and  _415
REMARK  173  A    between atoms: _415  and  _416
REMARK  174  A    between atoms: _419  and  _421
REMARK  175  A    between atoms: _421  and  _422
REMARK  176  A    between atoms: _421  and  _424
REMARK  177  A    between atoms: _424  and  _425
REMARK  178  A    between atoms: _425  and  _426
REMARK  179  A    between atoms: _426  and  _427
REMARK  180  A    between atoms: _427  and  _428
REMARK  181  A    between atoms: _432  and  _434
REMARK  182  A    between atoms: _434  and  _435
REMARK  183  A    between atoms: _434  and  _437
REMARK  184  A    between atoms: _437  and  _438
REMARK  185  A    between atoms: _438  and  _439
REMARK  186  A    between atoms: _441  and  _443
REMARK  187  A    between atoms: _443  and  _444
REMARK  188  A    between atoms: _443  and  _446
REMARK  189  A    between atoms: _446  and  _447
REMARK  190  A    between atoms: _450  and  _452
REMARK  191  A    between atoms: _452  and  _453
REMARK  192  A    between atoms: _455  and  _457
REMARK  193  A    between atoms: _457  and  _458
REMARK  194  A    between atoms: _460  and  _462
REMARK  195  A    between atoms: _462  and  _463
REMARK  196  A    between atoms: _462  and  _465
REMARK  197  A    between atoms: _465  and  _466
REMARK  198  A    between atoms: _469  and  _471
REMARK  199  A    between atoms: _471  and  _472
REMARK  200  A    between atoms: _474  and  _476
REMARK  201  A    between atoms: _476  and  _477
REMARK  202  A    between atoms: _479  and  _481
REMARK  203  A    between atoms: _481  and  _482
REMARK  204  A    between atoms: _481  and  _484
REMARK  205  A    between atoms: _484  and  _485
REMARK  206  A    between atoms: _491  and  _493
REMARK  207  A    between atoms: _493  and  _494
REMARK  208  A    between atoms: _493  and  _496
REMARK  209  A    between atoms: _496  and  _497
REMARK  210  A    between atoms: _500  and  _502
REMARK  211  A    between atoms: _502  and  _503
REMARK  212  A    between atoms: _502  and  _505
REMARK  213  A    between atoms: _508  and  _510
REMARK  214  A    between atoms: _510  and  _511
REMARK  215  A    between atoms: _510  and  _513
REMARK  216  A    between atoms: _513  and  _514
REMARK  217  A    between atoms: _517  and  _519
REMARK  218  A    between atoms: _519  and  _520
REMARK  219  A    between atoms: _519  and  _522
REMARK  220  A    between atoms: _522  and  _523
REMARK  221  A    between atoms: _527  and  _528
REMARK  222  A    between atoms: _533  and  _535
REMARK  223  A    between atoms: _535  and  _536
REMARK  224  A    between atoms: _535  and  _538
REMARK  225  A    between atoms: _541  and  _543
REMARK  226  A    between atoms: _543  and  _544
REMARK  227  A    between atoms: _543  and  _546
REMARK  228  A    between atoms: _546  and  _547
REMARK  229  A    between atoms: _552  and  _554
REMARK  230  A    between atoms: _554  and  _555
REMARK  231  A    between atoms: _554  and  _557
REMARK  232  A    between atoms: _557  and  _558
REMARK  233  A    between atoms: _561  and  _563
REMARK  234  A    between atoms: _563  and  _564
REMARK  235  A    between atoms: _563  and  _566
REMARK  236  A    between atoms: _566  and  _567
REMARK  237  A    between atoms: _570  and  _572
REMARK  238  A    between atoms: _572  and  _573
REMARK  239  A    between atoms: _575  and  _577
REMARK  240  A    between atoms: _577  and  _578
REMARK  241  A    between atoms: _577  and  _580
REMARK  242  A    between atoms: _580  and  _581
REMARK  243  A    between atoms: _581  and  _582
REMARK  244  A    between atoms: _582  and  _583
REMARK  245  A    between atoms: _592  and  _594
REMARK  246  A    between atoms: _594  and  _595
REMARK  247  A    between atoms: _594  and  _597
REMARK  248  A    between atoms: _597  and  _598
REMARK                            x       y       z     vdW  Elec       q    Type
REMARK                         _______ _______ _______ _____ _____    ______ ____
ROOT
ATOM      1  O   HOH     1      16.871  16.033  11.296  0.00  0.00    +0.000 OA
ENDROOT
TORSDOF 0
REMARK  Name = ../refined-set-2016/1d4h/1d4h_pocket.pdb
REMARK  248 active torsions:
REMARK  status: ('A' for Active; 'I' for Inactive)
REMARK    1  A    between atoms: _1  and  _3
REMARK    2  A    between atoms: _3  and  _4
REMARK    3  A    between atoms: _3  and  _6
REMARK    4  A    between atoms: _6  and  _7
REMARK    5  A    between atoms: _7  and  _8
REMARK    6  A    between atoms: _8  and  _9
REMARK    7  A    between atoms: _18  and  _20
REMARK    8  A    between atoms: _20  and  _21
REMARK    9  A    between atoms: _20  and  _23
REMARK   10  A    between atoms: _23  and  _24
REMARK   11  A    between atoms: _27  and  _29
REMARK   12  A    between atoms: _29  and  _30
REMARK   13  A    between atoms: _29  and  _32
REMARK   14  A    between atoms: _32  and  _33
REMARK   15  A    between atoms: _36  and  _38
REMARK   16  A    between atoms: _38  and  _39
REMARK   17  A    between atoms: _38  and  _41
REMARK   18  A    between atoms: _41  and  _42
REMARK   19  A    between atoms: _45  and  _47
REMARK   20  A    between atoms: _47  and  _48
REMARK   21  A    between atoms: _47  and  _50
REMARK   22  A    between atoms: _50  and  _51
REMARK   23  A    between atoms: _54  and  _56
REMARK   24  A    between atoms: _56  and  _57
REMARK   25  A    between atoms: _56  and  _59
REMARK   26  A    between atoms: _59  and  _60
REMARK   27  A    between atoms: _63  and  _65
REMARK   28  A    between atoms: _65  and  _66
REMARK   29  A    between atoms: _68  and  _70
REMARK   30  A    between atoms: _70  and  _71
REMARK   31  A    between atoms: _74  and  _76
REMARK   32  A    between atoms: _76  and  _77
REMARK   33  A    between atoms: _76  and  _79
REMARK   34  A    between atoms: _79  and  _80
REMARK   35  A    between atoms: _83  and  _85
REMARK   36  A    between atoms: _85  and  _86
REMARK   37  A    between atoms: _85  and  _88
REMARK   38  A    between atoms: _88  and  _89
REMARK   39  A    between atoms: _92  and  _94
REMARK   40  A    between atoms: _94  and  _95
REMARK   41  A    between atoms: _94  and  _97
REMARK   42  A    between atoms: _97  and  _98
REMARK   43  A    between atoms: _101  and  _103
REMARK   44  A    between atoms: _103  and  _104
REMARK   45  A    between atoms: _103  and  _106
REMARK   46  A    between atoms: _109  and  _111
REMARK   47  A    between atoms: _111  and  _112
REMARK   48  A    between atoms: _111  and  _114
REMARK   49  A    between atoms: _114  and  _115
REMARK   50  A    between atoms: _118  and  _120
REMARK   51  A    between atoms: _120  and  _121
REMARK   52  A    between atoms: _120  and  _123
REMARK   53  A    between atoms: _123  and  _124
REMARK   54  A    between atoms: _124  and  _125
REMARK   55  A    between atoms: _125  and  _126
REMARK   56  A    between atoms: _126  and  _127
REMARK   57  A    between atoms: _131  and  _133
REMARK   58  A    between atoms: _133  and  _134
REMARK   59  A    between atoms: _133  and  _136
REMARK   60  A    between atoms: _136  and  _137
REMARK   61  A    between atoms: _137  and  _138
REMARK   62  A    between atoms: _140  and  _142
REMARK   63  A    between atoms: _142  and  _143
REMARK   64  A    between atoms: _142  and  _145
REMARK   65  A    between atoms: _145  and  _146
REMARK   66  A    between atoms: _149  and  _151
REMARK   67  A    between atoms: _151  and  _152
REMARK   68  A    between atoms: _154  and  _156
REMARK   69  A    between atoms: _156  and  _157
REMARK   70  A    between atoms: _159  and  _161
REMARK   71  A    between atoms: _161  and  _162
REMARK   72  A    between atoms: _161  and  _164
REMARK   73  A    between atoms: _164  and  _165
REMARK   74  A    between atoms: _168  and  _170
REMARK   75  A    between atoms: _170  and  _171
REMARK   76  A    between atoms: _173  and  _175
REMARK   77  A    between atoms: _175  and  _176
REMARK   78  A    between atoms: _178  and  _180
REMARK   79  A    between atoms: _180  and  _181
REMARK   80  A    between atoms: _180  and  _183
REMARK   81  A    between atoms: _183  and  _184
REMARK   82  A    between atoms: _190  and  _192
REMARK   83  A    between atoms: _192  and  _193
REMARK   84  A    between atoms: _192  and  _195
REMARK   85  A    between atoms: _195  and  _196
REMARK   86  A    between atoms: _199  and  _201
REMARK   87  A    between atoms: _201  and  _202
REMARK   88  A    between atoms: _201  and  _204
REMARK   89  A    between atoms: _207  and  _209
REMARK   90  A    between atoms: _209  and  _210
REMARK   91  A    between atoms: _209  and  _212
REMARK   92  A    between atoms: _212  and  _213
REMARK   93  A    between atoms: _216  and  _218
REMARK   94  A    between atoms: _218  and  _219
REMARK   95  A    between atoms: _218  and  _221
REMARK   96  A    between atoms: _221  and  _222
REMARK   97  A    between atoms: _226  and  _227
REMARK   98  A    between atoms: _232  and  _234
REMARK   99  A    between atoms: _234  and  _235
REMARK  100  A    between atoms: _234  and  _237
REMARK  101  A    between atoms: _240  and  _242
REMARK  102  A    between atoms: _242  and  _243
REMARK  103  A    between atoms: _242  and  _245
REMARK  104  A    between atoms: _245  and  _246
REMARK  105  A    between atoms: _251  and  _253
REMARK  106  A    between atoms: _253  and  _254
REMARK  107  A    between atoms: _253  and  _256
REMARK  108  A    between atoms: _256  and  _257
REMARK  109  A    between atoms: _260  and  _262
REMARK  110  A    between atoms: _262  and  _263
REMARK  111  A    between atoms: _262  and  _265
REMARK  112  A    between atoms: _265  and  _266
REMARK  113  A    between atoms: _269  and  _271
REMARK  114  A    between atoms: _271  and  _272
REMARK  115  A    between atoms: _274  and  _276
REMARK  116  A    between atoms: _276  and  _277
REMARK  117  A    between atoms: _276  and  _279
REMARK  118  A    between atoms: _279  and  _280
REMARK  119  A    between atoms: _280  and  _281
REMARK  120  A    between atoms: _281  and  _282
REMARK  121  A    between atoms: _291  and  _293
REMARK  122  A    between atoms: _293  and  _294
REMARK  123  A    between atoms: _293  and  _296
REMARK  124  A    between atoms: _296  and  _297
REMARK  125  A    between atoms: _302  and  _304
REMARK  126  A    between atoms: _304  and  _305
REMARK  127  A    between atoms: _304  and  _307
REMARK  128  A    between atoms: _307  and  _308
REMARK  129  A    between atoms: _308  and  _309
REMARK  130  A    between atoms: _309  and  _310
REMARK  131  A    between atoms: _319  and  _321
REMARK  132  A    between atoms: _321  and  _322
REMARK  133  A    between atoms: _321  and  _324
REMARK  134  A    between atoms: _324  and  _325
REMARK  135  A    between atoms: _328  and  _330
REMARK  136  A    between atoms: _330  and  _331
REMARK  137  A    between atoms: _330  and  _333
REMARK  138  A    between atoms: _333  and  _334
REMARK  139  A    between atoms: _337  and  _339
REMARK  140  A    between atoms: _339  and  _340
REMARK  141  A    between atoms: _339  and  _342
REMARK  142  A    between atoms: _342  and  _343
REMARK  143  A    between atoms: _346  and  _348
REMARK  144  A    between atoms: _348  and  _349
REMARK  145  A    between atoms: _348  and  _351
REMARK  146  A    between atoms: _351  and  _352
REMARK  147  A    between atoms: _355  and  _357
REMARK  148  A    between atoms: _357  and  _358
REMARK  149  A    between atoms: _357  and  _360
REMARK  150  A    between atoms: _360  and  _361
REMARK  151  A    between atoms: _364  and  _366
REMARK  152  A    between atoms: _366  and  _367
REMARK  153  A    between atoms: _369  and  _371
REMARK  154  A    between atoms: _371  and  _372
REMARK  155  A    between atoms: _375  and  _377
REMARK  156  A    between atoms: _377  and  _378
REMARK  157  A    between atoms: _377  and  _380
REMARK  158  A    between atoms: _380  and  _381
REMARK  159  A    between atoms: _384  and  _386
REMARK  160  A    between atoms: _386  and  _387
REMARK  161  A    between atoms: _386  and  _389
REMARK  162  A    between atoms: _389  and  _390
REMARK  163  A    between atoms: _393  and  _395
REMARK  164  A    between atoms: _395  and  _396
REMARK  165  A    between atoms: _395  and  _398
REMARK  166  A    between atoms: _398  and  _399
REMARK  167  A    between atoms: _402  and  _404
REMARK  168  A    between atoms: _404  and  _405
REMARK  169  A    between atoms: _404  and  _407
REMARK  170  A    between atoms: _410  and  _412
REMARK  171  A    between atoms: _412  and  _413
REMARK  172  A    between atoms: _412  and  _415
REMARK  173  A    between atoms: _415  and  _416
REMARK  174  A    between atoms: _419  and  _421
REMARK  175  A    between atoms: _421  and  _422
REMARK  176  A    between atoms: _421  and  _424
REMARK  177  A    between atoms: _424  and  _425
REMARK  178  A    between atoms: _425  and  _426
REMARK  179  A    between atoms: _426  and  _427
REMARK  180  A    between atoms: _427  and  _428
REMARK  181  A    between atoms: _432  and  _434
REMARK  182  A    between atoms: _434  and  _435
REMARK  183  A    between atoms: _434  and  _437
REMARK  184  A    between atoms: _437  and  _438
REMARK  185  A    between atoms: _438  and  _439
REMARK  186  A    between atoms: _441  and  _443
REMARK  187  A    between atoms: _443  and  _444
REMARK  188  A    between atoms: _443  and  _446
REMARK  189  A    between atoms: _446  and  _447
REMARK  190  A    between atoms: _450  and  _452
REMARK  191  A    between atoms: _452  and  _453
REMARK  192  A    between atoms: _455  and  _457
REMARK  193  A    between atoms: _457  and  _458
REMARK  194  A    between atoms: _460  and  _462
REMARK  195  A    between atoms: _462  and  _463
REMARK  196  A    between atoms: _462  and  _465
REMARK  197  A    between atoms: _465  and  _466
REMARK  198  A    between atoms: _469  and  _471
REMARK  199  A    between atoms: _471  and  _472
REMARK  200  A    between atoms: _474  and  _476
REMARK  201  A    between atoms: _476  and  _477
REMARK  202  A    between atoms: _479  and  _481
REMARK  203  A    between atoms: _481  and  _482
REMARK  204  A    between atoms: _481  and  _484
REMARK  205  A    between atoms: _484  and  _485
REMARK  206  A    between atoms: _491  and  _493
REMARK  207  A    between atoms: _493  and  _494
REMARK  208  A    between atoms: _493  and  _496
REMARK  209  A    between atoms: _496  and  _497
REMARK  210  A    between atoms: _500  and  _502
REMARK  211  A    between atoms: _502  and  _503
REMARK  212  A    between atoms: _502  and  _505
REMARK  213  A    between atoms: _508  and  _510
REMARK  214  A    between atoms: _510  and  _511
REMARK  215  A    between atoms: _510  and  _513
REMARK  216  A    between atoms: _513  and  _514
REMARK  217  A    between atoms: _517  and  _519
REMARK  218  A    between atoms: _519  and  _520
REMARK  219  A    between atoms: _519  and  _522
REMARK  220  A    between atoms: _522  and  _523
REMARK  221  A    between atoms: _527  and  _528
REMARK  222  A    between atoms: _533  and  _535
REMARK  223  A    between atoms: _535  and  _536
REMARK  224  A    between atoms: _535  and  _538
REMARK  225  A    between atoms: _541  and  _543
REMARK  226  A    between atoms: _543  and  _544
REMARK  227  A    between atoms: _543  and  _546
REMARK  228  A    between atoms: _546  and  _547
REMARK  229  A    between atoms: _552  and  _554
REMARK  230  A    between atoms: _554  and  _555
REMARK  231  A    between atoms: _554  and  _557
REMARK  232  A    between atoms: _557  and  _558
REMARK  233  A    between atoms: _561  and  _563
REMARK  234  A    between atoms: _563  and  _564
REMARK  235  A    between atoms: _563  and  _566
REMARK  236  A    between atoms: _566  and  _567
REMARK  237  A    between atoms: _570  and  _572
REMARK  238  A    between atoms: _572  and  _573
REMARK  239  A    between atoms: _575  and  _577
REMARK  240  A    between atoms: _577  and  _578
REMARK  241  A    between atoms: _577  and  _580
REMARK  242  A    between atoms: _580  and  _581
REMARK  243  A    between atoms: _581  and  _582
REMARK  244  A    between atoms: _582  and  _583
REMARK  245  A    between atoms: _592  and  _594
REMARK  246  A    between atoms: _594  and  _595
REMARK  247  A    between atoms: _594  and  _597
REMARK  248  A    between atoms: _597  and  _598
REMARK                            x       y       z     vdW  Elec       q    Type
REMARK                         _______ _______ _______ _____ _____    ______ ____
ROOT
ATOM      1  O   HOH     1       6.002  28.278  -2.945  0.00  0.00    +0.000 OA
ENDROOT
TORSDOF 0
REMARK  Name = ../refined-set-2016/1d4h/1d4h_pocket.pdb
REMARK  248 active torsions:
REMARK  status: ('A' for Active; 'I' for Inactive)
REMARK    1  A    between atoms: _1  and  _3
REMARK    2  A    between atoms: _3  and  _4
REMARK    3  A    between atoms: _3  and  _6
REMARK    4  A    between atoms: _6  and  _7
REMARK    5  A    between atoms: _7  and  _8
REMARK    6  A    between atoms: _8  and  _9
REMARK    7  A    between atoms: _18  and  _20
REMARK    8  A    between atoms: _20  and  _21
REMARK    9  A    between atoms: _20  and  _23
REMARK   10  A    between atoms: _23  and  _24
REMARK   11  A    between atoms: _27  and  _29
REMARK   12  A    between atoms: _29  and  _30
REMARK   13  A    between atoms: _29  and  _32
REMARK   14  A    between atoms: _32  and  _33
REMARK   15  A    between atoms: _36  and  _38
REMARK   16  A    between atoms: _38  and  _39
REMARK   17  A    between atoms: _38  and  _41
REMARK   18  A    between atoms: _41  and  _42
REMARK   19  A    between atoms: _45  and  _47
REMARK   20  A    between atoms: _47  and  _48
REMARK   21  A    between atoms: _47  and  _50
REMARK   22  A    between atoms: _50  and  _51
REMARK   23  A    between atoms: _54  and  _56
REMARK   24  A    between atoms: _56  and  _57
REMARK   25  A    between atoms: _56  and  _59
REMARK   26  A    between atoms: _59  and  _60
REMARK   27  A    between atoms: _63  and  _65
REMARK   28  A    between atoms: _65  and  _66
REMARK   29  A    between atoms: _68  and  _70
REMARK   30  A    between atoms: _70  and  _71
REMARK   31  A    between atoms: _74  and  _76
REMARK   32  A    between atoms: _76  and  _77
REMARK   33  A    between atoms: _76  and  _79
REMARK   34  A    between atoms: _79  and  _80
REMARK   35  A    between atoms: _83  and  _85
REMARK   36  A    between atoms: _85  and  _86
REMARK   37  A    between atoms: _85  and  _88
REMARK   38  A    between atoms: _88  and  _89
REMARK   39  A    between atoms: _92  and  _94
REMARK   40  A    between atoms: _94  and  _95
REMARK   41  A    between atoms: _94  and  _97
REMARK   42  A    between atoms: _97  and  _98
REMARK   43  A    between atoms: _101  and  _103
REMARK   44  A    between atoms: _103  and  _104
REMARK   45  A    between atoms: _103  and  _106
REMARK   46  A    between atoms: _109  and  _111
REMARK   47  A    between atoms: _111  and  _112
REMARK   48  A    between atoms: _111  and  _114
REMARK   49  A    between atoms: _114  and  _115
REMARK   50  A    between atoms: _118  and  _120
REMARK   51  A    between atoms: _120  and  _121
REMARK   52  A    between atoms: _120  and  _123
REMARK   53  A    between atoms: _123  and  _124
REMARK   54  A    between atoms: _124  and  _125
REMARK   55  A    between atoms: _125  and  _126
REMARK   56  A    between atoms: _126  and  _127
REMARK   57  A    between atoms: _131  and  _133
REMARK   58  A    between atoms: _133  and  _134
REMARK   59  A    between atoms: _133  and  _136
REMARK   60  A    between atoms: _136  and  _137
REMARK   61  A    between atoms: _137  and  _138
REMARK   62  A    between atoms: _140  and  _142
REMARK   63  A    between atoms: _142  and  _143
REMARK   64  A    between atoms: _142  and  _145
REMARK   65  A    between atoms: _145  and  _146
REMARK   66  A    between atoms: _149  and  _151
REMARK   67  A    between atoms: _151  and  _152
REMARK   68  A    between atoms: _154  and  _156
REMARK   69  A    between atoms: _156  and  _157
REMARK   70  A    between atoms: _159  and  _161
REMARK   71  A    between atoms: _161  and  _162
REMARK   72  A    between atoms: _161  and  _164
REMARK   73  A    between atoms: _164  and  _165
REMARK   74  A    between atoms: _168  and  _170
REMARK   75  A    between atoms: _170  and  _171
REMARK   76  A    between atoms: _173  and  _175
REMARK   77  A    between atoms: _175  and  _176
REMARK   78  A    between atoms: _178  and  _180
REMARK   79  A    between atoms: _180  and  _181
REMARK   80  A    between atoms: _180  and  _183
REMARK   81  A    between atoms: _183  and  _184
REMARK   82  A    between atoms: _190  and  _192
REMARK   83  A    between atoms: _192  and  _193
REMARK   84  A    between atoms: _192  and  _195
REMARK   85  A    between atoms: _195  and  _196
REMARK   86  A    between atoms: _199  and  _201
REMARK   87  A    between atoms: _201  and  _202
REMARK   88  A    between atoms: _201  and  _204
REMARK   89  A    between atoms: _207  and  _209
REMARK   90  A    between atoms: _209  and  _210
REMARK   91  A    between atoms: _209  and  _212
REMARK   92  A    between atoms: _212  and  _213
REMARK   93  A    between atoms: _216  and  _218
REMARK   94  A    between atoms: _218  and  _219
REMARK   95  A    between atoms: _218  and  _221
REMARK   96  A    between atoms: _221  and  _222
REMARK   97  A    between atoms: _226  and  _227
REMARK   98  A    between atoms: _232  and  _234
REMARK   99  A    between atoms: _234  and  _235
REMARK  100  A    between atoms: _234  and  _237
REMARK  101  A    between atoms: _240  and  _242
REMARK  102  A    between atoms: _242  and  _243
REMARK  103  A    between atoms: _242  and  _245
REMARK  104  A    between atoms: _245  and  _246
REMARK  105  A    between atoms: _251  and  _253
REMARK  106  A    between atoms: _253  and  _254
REMARK  107  A    between atoms: _253  and  _256
REMARK  108  A    between atoms: _256  and  _257
REMARK  109  A    between atoms: _260  and  _262
REMARK  110  A    between atoms: _262  and  _263
REMARK  111  A    between atoms: _262  and  _265
REMARK  112  A    between atoms: _265  and  _266
REMARK  113  A    between atoms: _269  and  _271
REMARK  114  A    between atoms: _271  and  _272
REMARK  115  A    between atoms: _274  and  _276
REMARK  116  A    between atoms: _276  and  _277
REMARK  117  A    between atoms: _276  and  _279
REMARK  118  A    between atoms: _279  and  _280
REMARK  119  A    between atoms: _280  and  _281
REMARK  120  A    between atoms: _281  and  _282
REMARK  121  A    between atoms: _291  and  _293
REMARK  122  A    between atoms: _293  and  _294
REMARK  123  A    between atoms: _293  and  _296
REMARK  124  A    between atoms: _296  and  _297
REMARK  125  A    between atoms: _302  and  _304
REMARK  126  A    between atoms: _304  and  _305
REMARK  127  A    between atoms: _304  and  _307
REMARK  128  A    between atoms: _307  and  _308
REMARK  129  A    between atoms: _308  and  _309
REMARK  130  A    between atoms: _309  and  _310
REMARK  131  A    between atoms: _319  and  _321
REMARK  132  A    between atoms: _321  and  _322
REMARK  133  A    between atoms: _321  and  _324
REMARK  134  A    between atoms: _324  and  _325
REMARK  135  A    between atoms: _328  and  _330
REMARK  136  A    between atoms: _330  and  _331
REMARK  137  A    between atoms: _330  and  _333
REMARK  138  A    between atoms: _333  and  _334
REMARK  139  A    between atoms: _337  and  _339
REMARK  140  A    between atoms: _339  and  _340
REMARK  141  A    between atoms: _339  and  _342
REMARK  142  A    between atoms: _342  and  _343
REMARK  143  A    between atoms: _346  and  _348
REMARK  144  A    between atoms: _348  and  _349
REMARK  145  A    between atoms: _348  and  _351
REMARK  146  A    between atoms: _351  and  _352
REMARK  147  A    between atoms: _355  and  _357
REMARK  148  A    between atoms: _357  and  _358
REMARK  149  A    between atoms: _357  and  _360
REMARK  150  A    between atoms: _360  and  _361
REMARK  151  A    between atoms: _364  and  _366
REMARK  152  A    between atoms: _366  and  _367
REMARK  153  A    between atoms: _369  and  _371
REMARK  154  A    between atoms: _371  and  _372
REMARK  155  A    between atoms: _375  and  _377
REMARK  156  A    between atoms: _377  and  _378
REMARK  157  A    between atoms: _377  and  _380
REMARK  158  A    between atoms: _380  and  _381
REMARK  159  A    between atoms: _384  and  _386
REMARK  160  A    between atoms: _386  and  _387
REMARK  161  A    between atoms: _386  and  _389
REMARK  162  A    between atoms: _389  and  _390
REMARK  163  A    between atoms: _393  and  _395
REMARK  164  A    between atoms: _395  and  _396
REMARK  165  A    between atoms: _395  and  _398
REMARK  166  A    between atoms: _398  and  _399
REMARK  167  A    between atoms: _402  and  _404
REMARK  168  A    between atoms: _404  and  _405
REMARK  169  A    between atoms: _404  and  _407
REMARK  170  A    between atoms: _410  and  _412
REMARK  171  A    between atoms: _412  and  _413
REMARK  172  A    between atoms: _412  and  _415
REMARK  173  A    between atoms: _415  and  _416
REMARK  174  A    between atoms: _419  and  _421
REMARK  175  A    between atoms: _421  and  _422
REMARK  176  A    between atoms: _421  and  _424
REMARK  177  A    between atoms: _424  and  _425
REMARK  178  A    between atoms: _425  and  _426
REMARK  179  A    between atoms: _426  and  _427
REMARK  180  A    between atoms: _427  and  _428
REMARK  181  A    between atoms: _432  and  _434
REMARK  182  A    between atoms: _434  and  _435
REMARK  183  A    between atoms: _434  and  _437
REMARK  184  A    between atoms: _437  and  _438
REMARK  185  A    between atoms: _438  and  _439
REMARK  186  A    between atoms: _441  and  _443
REMARK  187  A    between atoms: _443  and  _444
REMARK  188  A    between atoms: _443  and  _446
REMARK  189  A    between atoms: _446  and  _447
REMARK  190  A    between atoms: _450  and  _452
REMARK  191  A    between atoms: _452  and  _453
REMARK  192  A    between atoms: _455  and  _457
REMARK  193  A    between atoms: _457  and  _458
REMARK  194  A    between atoms: _460  and  _462
REMARK  195  A    between atoms: _462  and  _463
REMARK  196  A    between atoms: _462  and  _465
REMARK  197  A    between atoms: _465  and  _466
REMARK  198  A    between atoms: _469  and  _471
REMARK  199  A    between atoms: _471  and  _472
REMARK  200  A    between atoms: _474  and  _476
REMARK  201  A    between atoms: _476  and  _477
REMARK  202  A    between atoms: _479  and  _481
REMARK  203  A    between atoms: _481  and  _482
REMARK  204  A    between atoms: _481  and  _484
REMARK  205  A    between atoms: _484  and  _485
REMARK  206  A    between atoms: _491  and  _493
REMARK  207  A    between atoms: _493  and  _494
REMARK  208  A    between atoms: _493  and  _496
REMARK  209  A    between atoms: _496  and  _497
REMARK  210  A    between atoms: _500  and  _502
REMARK  211  A    between atoms: _502  and  _503
REMARK  212  A    between atoms: _502  and  _505
REMARK  213  A    between atoms: _508  and  _510
REMARK  214  A    between atoms: _510  and  _511
REMARK  215  A    between atoms: _510  and  _513
REMARK  216  A    between atoms: _513  and  _514
REMARK  217  A    between atoms: _517  and  _519
REMARK  218  A    between atoms: _519  and  _520
REMARK  219  A    between atoms: _519  and  _522
REMARK  220  A    between atoms: _522  and  _523
REMARK  221  A    between atoms: _527  and  _528
REMARK  222  A    between atoms: _533  and  _535
REMARK  223  A    between atoms: _535  and  _536
REMARK  224  A    between atoms: _535  and  _538
REMARK  225  A    between atoms: _541  and  _543
REMARK  226  A    between atoms: _543  and  _544
REMARK  227  A    between atoms: _543  and  _546
REMARK  228  A    between atoms: _546  and  _547
REMARK  229  A    between atoms: _552  and  _554
REMARK  230  A    between atoms: _554  and  _555
REMARK  231  A    between atoms: _554  and  _557
REMARK  232  A    between atoms: _557  and  _558
REMARK  233  A    between atoms: _561  and  _563
REMARK  234  A    between atoms: _563  and  _564
REMARK  235  A    between atoms: _563  and  _566
REMARK  236  A    between atoms: _566  and  _567
REMARK  237  A    between atoms: _570  and  _572
REMARK  238  A    between atoms: _572  and  _573
REMARK  239  A    between atoms: _575  and  _577
REMARK  240  A    between atoms: _577  and  _578
REMARK  241  A    between atoms: _577  and  _580
REMARK  242  A    between atoms: _580  and  _581
REMARK  243  A    between atoms: _581  and  _582
REMARK  244  A    between atoms: _582  and  _583
REMARK  245  A    between atoms: _592  and  _594
REMARK  246  A    between atoms: _594  and  _595
REMARK  247  A    between atoms: _594  and  _597
REMARK  248  A    between atoms: _597  and  _598
REMARK                            x       y       z     vdW  Elec       q    Type
REMARK                         _______ _______ _______ _____ _____    ______ ____
ROOT
ATOM      1  O   HOH     1       3.526  26.045  -0.248  0.00  0.00    +0.000 OA
ENDROOT
TORSDOF 0
