REMARK  Name = ../refined-set-2016/2e91/2e91_pocket.pdb
REMARK  160 active torsions:
REMARK  status: ('A' for Active; 'I' for Inactive)
REMARK    1  A    between atoms: _1  and  _3
REMARK    2  A    between atoms: _3  and  _4
REMARK    3  A    between atoms: _3  and  _6
REMARK    4  A    between atoms: _6  and  _7
REMARK    5  A    between atoms: _12  and  _14
REMARK    6  A    between atoms: _14  and  _15
REMARK    7  A    between atoms: _14  and  _17
REMARK    8  A    between atoms: _17  and  _18
REMARK    9  A    between atoms: _20  and  _22
REMARK   10  A    between atoms: _22  and  _23
REMARK   11  A    between atoms: _22  and  _25
REMARK   12  A    between atoms: _25  and  _26
REMARK   13  A    between atoms: _29  and  _31
REMARK   14  A    between atoms: _31  and  _32
REMARK   15  A    between atoms: _31  and  _34
REMARK   16  A    between atoms: _34  and  _35
REMARK   17  A    between atoms: _38  and  _40
REMARK   18  A    between atoms: _40  and  _41
REMARK   19  A    between atoms: _40  and  _43
REMARK   20  A    between atoms: _43  and  _44
REMARK   21  A    between atoms: _44  and  _45
REMARK   22  A    between atoms: _44  and  _46
REMARK   23  A    between atoms: _45  and  MG_371
REMARK   24  A    between atoms: _46  and  MG_372
REMARK   25  A    between atoms: _47  and  _49
REMARK   26  A    between atoms: _49  and  _50
REMARK   27  A    between atoms: _49  and  _52
REMARK   28  A    between atoms: _52  and  _53
REMARK   29  A    between atoms: _56  and  _58
REMARK   30  A    between atoms: _58  and  _59
REMARK   31  A    between atoms: _58  and  _61
REMARK   32  A    between atoms: _61  and  _62
REMARK   33  A    between atoms: _62  and  _63
REMARK   34  A    between atoms: _66  and  _68
REMARK   35  A    between atoms: _68  and  _69
REMARK   36  A    between atoms: _68  and  _71
REMARK   37  A    between atoms: _71  and  _72
REMARK   38  A    between atoms: _75  and  _77
REMARK   39  A    between atoms: _77  and  _78
REMARK   40  A    between atoms: _81  and  _83
REMARK   41  A    between atoms: _83  and  _84
REMARK   42  A    between atoms: _83  and  _86
REMARK   43  A    between atoms: _86  and  _87
REMARK   44  A    between atoms: _90  and  _92
REMARK   45  A    between atoms: _92  and  _93
REMARK   46  A    between atoms: _92  and  _95
REMARK   47  A    between atoms: _95  and  _96
REMARK   48  A    between atoms: _96  and  _97
REMARK   49  A    between atoms: _97  and  _98
REMARK   50  A    between atoms: _107  and  _109
REMARK   51  A    between atoms: _109  and  _110
REMARK   52  A    between atoms: _109  and  _112
REMARK   53  A    between atoms: _112  and  _113
REMARK   54  A    between atoms: _113  and  _114
REMARK   55  A    between atoms: _114  and  _115
REMARK   56  A    between atoms: _124  and  _126
REMARK   57  A    between atoms: _126  and  _127
REMARK   58  A    between atoms: _126  and  _129
REMARK   59  A    between atoms: _129  and  _130
REMARK   60  A    between atoms: _133  and  _135
REMARK   61  A    between atoms: _135  and  _136
REMARK   62  A    between atoms: _138  and  _140
REMARK   63  A    between atoms: _140  and  _141
REMARK   64  A    between atoms: _140  and  _143
REMARK   65  A    between atoms: _143  and  _144
REMARK   66  A    between atoms: _144  and  _145
REMARK   67  A    between atoms: _150  and  _152
REMARK   68  A    between atoms: _152  and  _153
REMARK   69  A    between atoms: _152  and  _155
REMARK   70  A    between atoms: _155  and  _156
REMARK   71  A    between atoms: _159  and  _161
REMARK   72  A    between atoms: _161  and  _162
REMARK   73  A    between atoms: _161  and  _164
REMARK   74  A    between atoms: _164  and  _165
REMARK   75  A    between atoms: _165  and  _166
REMARK   76  A    between atoms: _166  and  _167
REMARK   77  A    between atoms: _176  and  _178
REMARK   78  A    between atoms: _178  and  _179
REMARK   79  A    between atoms: _178  and  _181
REMARK   80  A    between atoms: _181  and  _182
REMARK   81  A    between atoms: _187  and  _188
REMARK   82  A    between atoms: _190  and  _192
REMARK   83  A    between atoms: _192  and  _193
REMARK   84  A    between atoms: _192  and  _195
REMARK   85  A    between atoms: _195  and  _196
REMARK   86  A    between atoms: _196  and  _197
REMARK   87  A    between atoms: _199  and  _201
REMARK   88  A    between atoms: _201  and  _202
REMARK   89  A    between atoms: _201  and  _204
REMARK   90  A    between atoms: _207  and  _209
REMARK   91  A    between atoms: _209  and  _210
REMARK   92  A    between atoms: _209  and  _212
REMARK   93  A    between atoms: _212  and  _213
REMARK   94  A    between atoms: _218  and  _220
REMARK   95  A    between atoms: _220  and  _221
REMARK   96  A    between atoms: _220  and  _223
REMARK   97  A    between atoms: _223  and  _224
REMARK   98  A    between atoms: _224  and  _225
REMARK   99  A    between atoms: _225  and  _226
REMARK  100  A    between atoms: _226  and  _227
REMARK  101  A    between atoms: _231  and  _233
REMARK  102  A    between atoms: _233  and  _234
REMARK  103  A    between atoms: _233  and  _236
REMARK  104  A    between atoms: _236  and  _237
REMARK  105  A    between atoms: _240  and  _242
REMARK  106  A    between atoms: _242  and  _243
REMARK  107  A    between atoms: _245  and  _247
REMARK  108  A    between atoms: _247  and  _248
REMARK  109  A    between atoms: _250  and  _252
REMARK  110  A    between atoms: _252  and  _253
REMARK  111  A    between atoms: _252  and  _255
REMARK  112  A    between atoms: _255  and  _256
REMARK  113  A    between atoms: _259  and  _261
REMARK  114  A    between atoms: _261  and  _262
REMARK  115  A    between atoms: _261  and  _264
REMARK  116  A    between atoms: _264  and  _265
REMARK  117  A    between atoms: _271  and  _273
REMARK  118  A    between atoms: _273  and  _274
REMARK  119  A    between atoms: _276  and  _278
REMARK  120  A    between atoms: _278  and  _279
REMARK  121  A    between atoms: _278  and  _281
REMARK  122  A    between atoms: _281  and  _282
REMARK  123  A    between atoms: _287  and  _288
REMARK  124  A    between atoms: _290  and  _292
REMARK  125  A    between atoms: _292  and  _293
REMARK  126  A    between atoms: _292  and  _295
REMARK  127  A    between atoms: _295  and  _296
REMARK  128  A    between atoms: _296  and  _297
REMARK  129  A    between atoms: _302  and  _304
REMARK  130  A    between atoms: _304  and  _305
REMARK  131  A    between atoms: _304  and  _307
REMARK  132  A    between atoms: _307  and  _308
REMARK  133  A    between atoms: _311  and  _313
REMARK  134  A    between atoms: _313  and  _314
REMARK  135  A    between atoms: _313  and  _316
REMARK  136  A    between atoms: _316  and  _317
REMARK  137  A    between atoms: _320  and  _322
REMARK  138  A    between atoms: _322  and  _323
REMARK  139  A    between atoms: _322  and  _325
REMARK  140  A    between atoms: _325  and  _326
REMARK  141  A    between atoms: _331  and  _333
REMARK  142  A    between atoms: _333  and  _334
REMARK  143  A    between atoms: _333  and  _336
REMARK  144  A    between atoms: _336  and  _337
REMARK  145  A    between atoms: _340  and  _342
REMARK  146  A    between atoms: _342  and  _343
REMARK  147  A    between atoms: _342  and  _345
REMARK  148  A    between atoms: _345  and  _346
REMARK  149  A    between atoms: _346  and  _347
REMARK  150  A    between atoms: _350  and  _352
REMARK  151  A    between atoms: _352  and  _353
REMARK  152  A    between atoms: _352  and  _355
REMARK  153  A    between atoms: _355  and  _356
REMARK  154  A    between atoms: _356  and  _357
REMARK  155  A    between atoms: _357  and  _358
REMARK  156  A    between atoms: _358  and  _359
REMARK  157  A    between atoms: _363  and  _365
REMARK  158  A    between atoms: _365  and  _366
REMARK  159  A    between atoms: _365  and  _368
REMARK  160  A    between atoms: _368  and  _369
REMARK                            x       y       z     vdW  Elec       q    Type
REMARK                         _______ _______ _______ _____ _____    ______ ____
ROOT
ATOM      1  CB  HIS A   1      36.603  47.366  12.939  0.00  0.00    +0.072 C 
ENDROOT
BRANCH   1   2
ATOM      2  CG  HIS A   1      36.284  47.383  11.470  0.00  0.00    +0.082 A 
ATOM      3  ND1 HIS A   1      35.103  47.895  10.961  0.00  0.00    -0.227 NA
ATOM      4  CE1 HIS A   1      35.119  47.820   9.642  0.00  0.00    +0.199 A 
ATOM      5  NE2 HIS A   1      36.257  47.264   9.277  0.00  0.00    -0.221 NA
ATOM      6  CD2 HIS A   1      37.003  46.978  10.400  0.00  0.00    +0.115 A 
ENDBRANCH   1   2
BRANCH   1   7
ATOM      7  CA  HIS A   1      35.642  46.519  13.784  0.00  0.00    +0.139 C 
BRANCH   7   8
ATOM      8  N   HIS A   1      35.988  46.624  15.194  0.00  0.00    -0.239 NA
ATOM      9  H   HIS A   1      36.858  47.117  15.479  0.00  0.00    +0.142 HD
ENDBRANCH   7   8
BRANCH   7  10
ATOM     10  C   HIS A   1      35.668  45.049  13.307  0.00  0.00    +0.224 C 
ATOM     11  O   HIS A   1      34.694  44.536  12.700  0.00  0.00    -0.287 OA
ENDBRANCH   7  10
ENDBRANCH   1   7
TORSDOF 4
REMARK  Name = ../refined-set-2016/2e91/2e91_pocket.pdb
REMARK  160 active torsions:
REMARK  status: ('A' for Active; 'I' for Inactive)
REMARK    1  A    between atoms: _1  and  _3
REMARK    2  A    between atoms: _3  and  _4
REMARK    3  A    between atoms: _3  and  _6
REMARK    4  A    between atoms: _6  and  _7
REMARK    5  A    between atoms: _12  and  _14
REMARK    6  A    between atoms: _14  and  _15
REMARK    7  A    between atoms: _14  and  _17
REMARK    8  A    between atoms: _17  and  _18
REMARK    9  A    between atoms: _20  and  _22
REMARK   10  A    between atoms: _22  and  _23
REMARK   11  A    between atoms: _22  and  _25
REMARK   12  A    between atoms: _25  and  _26
REMARK   13  A    between atoms: _29  and  _31
REMARK   14  A    between atoms: _31  and  _32
REMARK   15  A    between atoms: _31  and  _34
REMARK   16  A    between atoms: _34  and  _35
REMARK   17  A    between atoms: _38  and  _40
REMARK   18  A    between atoms: _40  and  _41
REMARK   19  A    between atoms: _40  and  _43
REMARK   20  A    between atoms: _43  and  _44
REMARK   21  A    between atoms: _44  and  _45
REMARK   22  A    between atoms: _44  and  _46
REMARK   23  A    between atoms: _45  and  MG_371
REMARK   24  A    between atoms: _46  and  MG_372
REMARK   25  A    between atoms: _47  and  _49
REMARK   26  A    between atoms: _49  and  _50
REMARK   27  A    between atoms: _49  and  _52
REMARK   28  A    between atoms: _52  and  _53
REMARK   29  A    between atoms: _56  and  _58
REMARK   30  A    between atoms: _58  and  _59
REMARK   31  A    between atoms: _58  and  _61
REMARK   32  A    between atoms: _61  and  _62
REMARK   33  A    between atoms: _62  and  _63
REMARK   34  A    between atoms: _66  and  _68
REMARK   35  A    between atoms: _68  and  _69
REMARK   36  A    between atoms: _68  and  _71
REMARK   37  A    between atoms: _71  and  _72
REMARK   38  A    between atoms: _75  and  _77
REMARK   39  A    between atoms: _77  and  _78
REMARK   40  A    between atoms: _81  and  _83
REMARK   41  A    between atoms: _83  and  _84
REMARK   42  A    between atoms: _83  and  _86
REMARK   43  A    between atoms: _86  and  _87
REMARK   44  A    between atoms: _90  and  _92
REMARK   45  A    between atoms: _92  and  _93
REMARK   46  A    between atoms: _92  and  _95
REMARK   47  A    between atoms: _95  and  _96
REMARK   48  A    between atoms: _96  and  _97
REMARK   49  A    between atoms: _97  and  _98
REMARK   50  A    between atoms: _107  and  _109
REMARK   51  A    between atoms: _109  and  _110
REMARK   52  A    between atoms: _109  and  _112
REMARK   53  A    between atoms: _112  and  _113
REMARK   54  A    between atoms: _113  and  _114
REMARK   55  A    between atoms: _114  and  _115
REMARK   56  A    between atoms: _124  and  _126
REMARK   57  A    between atoms: _126  and  _127
REMARK   58  A    between atoms: _126  and  _129
REMARK   59  A    between atoms: _129  and  _130
REMARK   60  A    between atoms: _133  and  _135
REMARK   61  A    between atoms: _135  and  _136
REMARK   62  A    between atoms: _138  and  _140
REMARK   63  A    between atoms: _140  and  _141
REMARK   64  A    between atoms: _140  and  _143
REMARK   65  A    between atoms: _143  and  _144
REMARK   66  A    between atoms: _144  and  _145
REMARK   67  A    between atoms: _150  and  _152
REMARK   68  A    between atoms: _152  and  _153
REMARK   69  A    between atoms: _152  and  _155
REMARK   70  A    between atoms: _155  and  _156
REMARK   71  A    between atoms: _159  and  _161
REMARK   72  A    between atoms: _161  and  _162
REMARK   73  A    between atoms: _161  and  _164
REMARK   74  A    between atoms: _164  and  _165
REMARK   75  A    between atoms: _165  and  _166
REMARK   76  A    between atoms: _166  and  _167
REMARK   77  A    between atoms: _176  and  _178
REMARK   78  A    between atoms: _178  and  _179
REMARK   79  A    between atoms: _178  and  _181
REMARK   80  A    between atoms: _181  and  _182
REMARK   81  A    between atoms: _187  and  _188
REMARK   82  A    between atoms: _190  and  _192
REMARK   83  A    between atoms: _192  and  _193
REMARK   84  A    between atoms: _192  and  _195
REMARK   85  A    between atoms: _195  and  _196
REMARK   86  A    between atoms: _196  and  _197
REMARK   87  A    between atoms: _199  and  _201
REMARK   88  A    between atoms: _201  and  _202
REMARK   89  A    between atoms: _201  and  _204
REMARK   90  A    between atoms: _207  and  _209
REMARK   91  A    between atoms: _209  and  _210
REMARK   92  A    between atoms: _209  and  _212
REMARK   93  A    between atoms: _212  and  _213
REMARK   94  A    between atoms: _218  and  _220
REMARK   95  A    between atoms: _220  and  _221
REMARK   96  A    between atoms: _220  and  _223
REMARK   97  A    between atoms: _223  and  _224
REMARK   98  A    between atoms: _224  and  _225
REMARK   99  A    between atoms: _225  and  _226
REMARK  100  A    between atoms: _226  and  _227
REMARK  101  A    between atoms: _231  and  _233
REMARK  102  A    between atoms: _233  and  _234
REMARK  103  A    between atoms: _233  and  _236
REMARK  104  A    between atoms: _236  and  _237
REMARK  105  A    between atoms: _240  and  _242
REMARK  106  A    between atoms: _242  and  _243
REMARK  107  A    between atoms: _245  and  _247
REMARK  108  A    between atoms: _247  and  _248
REMARK  109  A    between atoms: _250  and  _252
REMARK  110  A    between atoms: _252  and  _253
REMARK  111  A    between atoms: _252  and  _255
REMARK  112  A    between atoms: _255  and  _256
REMARK  113  A    between atoms: _259  and  _261
REMARK  114  A    between atoms: _261  and  _262
REMARK  115  A    between atoms: _261  and  _264
REMARK  116  A    between atoms: _264  and  _265
REMARK  117  A    between atoms: _271  and  _273
REMARK  118  A    between atoms: _273  and  _274
REMARK  119  A    between atoms: _276  and  _278
REMARK  120  A    between atoms: _278  and  _279
REMARK  121  A    between atoms: _278  and  _281
REMARK  122  A    between atoms: _281  and  _282
REMARK  123  A    between atoms: _287  and  _288
REMARK  124  A    between atoms: _290  and  _292
REMARK  125  A    between atoms: _292  and  _293
REMARK  126  A    between atoms: _292  and  _295
REMARK  127  A    between atoms: _295  and  _296
REMARK  128  A    between atoms: _296  and  _297
REMARK  129  A    between atoms: _302  and  _304
REMARK  130  A    between atoms: _304  and  _305
REMARK  131  A    between atoms: _304  and  _307
REMARK  132  A    between atoms: _307  and  _308
REMARK  133  A    between atoms: _311  and  _313
REMARK  134  A    between atoms: _313  and  _314
REMARK  135  A    between atoms: _313  and  _316
REMARK  136  A    between atoms: _316  and  _317
REMARK  137  A    between atoms: _320  and  _322
REMARK  138  A    between atoms: _322  and  _323
REMARK  139  A    between atoms: _322  and  _325
REMARK  140  A    between atoms: _325  and  _326
REMARK  141  A    between atoms: _331  and  _333
REMARK  142  A    between atoms: _333  and  _334
REMARK  143  A    between atoms: _333  and  _336
REMARK  144  A    between atoms: _336  and  _337
REMARK  145  A    between atoms: _340  and  _342
REMARK  146  A    between atoms: _342  and  _343
REMARK  147  A    between atoms: _342  and  _345
REMARK  148  A    between atoms: _345  and  _346
REMARK  149  A    between atoms: _346  and  _347
REMARK  150  A    between atoms: _350  and  _352
REMARK  151  A    between atoms: _352  and  _353
REMARK  152  A    between atoms: _352  and  _355
REMARK  153  A    between atoms: _355  and  _356
REMARK  154  A    between atoms: _356  and  _357
REMARK  155  A    between atoms: _357  and  _358
REMARK  156  A    between atoms: _358  and  _359
REMARK  157  A    between atoms: _363  and  _365
REMARK  158  A    between atoms: _365  and  _366
REMARK  159  A    between atoms: _365  and  _368
REMARK  160  A    between atoms: _368  and  _369
REMARK                            x       y       z     vdW  Elec       q    Type
REMARK                         _______ _______ _______ _____ _____    ______ ____
ROOT
ATOM      1  C   SER A   1      31.393  42.723  12.952  0.00  0.00    +0.241 C 
ATOM      2  O   SER A   1      30.274  42.382  12.559  0.00  0.00    -0.274 OA
ATOM      3  N   LEU A   2      32.480  42.616  12.189  0.00  0.00    -0.298 N 
ATOM      4  H   LEU A   2      33.392  42.962  12.549  0.00  0.00    +0.150 HD
ENDROOT
BRANCH   1   5
ATOM      5  CA  SER A   1      31.549  43.314  14.379  0.00  0.00    +0.174 C 
BRANCH   5   6
ATOM      6  N   SER A   1      32.854  42.998  14.944  0.00  0.00    -0.236 NA
ATOM      7  H   SER A   1      33.525  43.767  15.145  0.00  0.00    +0.142 HD
ENDBRANCH   5   6
BRANCH   5   8
ATOM      8  CB  SER A   1      31.328  44.817  14.326  0.00  0.00    +0.163 C 
BRANCH   8   9
ATOM      9  OG  SER A   1      32.141  45.374  13.307  0.00  0.00    -0.380 OA
ATOM     10  H   SER A   1      33.092  45.185  13.505  0.00  0.00    +0.211 HD
ENDBRANCH   8   9
ENDBRANCH   5   8
ENDBRANCH   1   5
BRANCH   3  11
ATOM     11  CA  LEU A   2      32.413  42.010  10.828  0.00  0.00    +0.137 C 
BRANCH  11  12
ATOM     12  C   LEU A   2      32.274  40.472  10.937  0.00  0.00    +0.227 C 
ATOM     13  O   LEU A   2      31.601  39.851  10.124  0.00  0.00    -0.286 OA
ENDBRANCH  11  12
BRANCH  11  14
ATOM     14  CB  LEU A   2      33.659  42.364   9.956  0.00  0.00    +0.028 C 
BRANCH  14  15
ATOM     15  CG  LEU A   2      33.876  43.853   9.609  0.00  0.00    +0.002 C 
ATOM     16  CD2 LEU A   2      32.554  44.432   9.007  0.00  0.00    +0.000 C 
ATOM     17  CD1 LEU A   2      35.065  44.022   8.575  0.00  0.00    +0.000 C 
ENDBRANCH  14  15
ENDBRANCH  11  14
ENDBRANCH   3  11
TORSDOF 8
REMARK  Name = ../refined-set-2016/2e91/2e91_pocket.pdb
REMARK  160 active torsions:
REMARK  status: ('A' for Active; 'I' for Inactive)
REMARK    1  A    between atoms: _1  and  _3
REMARK    2  A    between atoms: _3  and  _4
REMARK    3  A    between atoms: _3  and  _6
REMARK    4  A    between atoms: _6  and  _7
REMARK    5  A    between atoms: _12  and  _14
REMARK    6  A    between atoms: _14  and  _15
REMARK    7  A    between atoms: _14  and  _17
REMARK    8  A    between atoms: _17  and  _18
REMARK    9  A    between atoms: _20  and  _22
REMARK   10  A    between atoms: _22  and  _23
REMARK   11  A    between atoms: _22  and  _25
REMARK   12  A    between atoms: _25  and  _26
REMARK   13  A    between atoms: _29  and  _31
REMARK   14  A    between atoms: _31  and  _32
REMARK   15  A    between atoms: _31  and  _34
REMARK   16  A    between atoms: _34  and  _35
REMARK   17  A    between atoms: _38  and  _40
REMARK   18  A    between atoms: _40  and  _41
REMARK   19  A    between atoms: _40  and  _43
REMARK   20  A    between atoms: _43  and  _44
REMARK   21  A    between atoms: _44  and  _45
REMARK   22  A    between atoms: _44  and  _46
REMARK   23  A    between atoms: _45  and  MG_371
REMARK   24  A    between atoms: _46  and  MG_372
REMARK   25  A    between atoms: _47  and  _49
REMARK   26  A    between atoms: _49  and  _50
REMARK   27  A    between atoms: _49  and  _52
REMARK   28  A    between atoms: _52  and  _53
REMARK   29  A    between atoms: _56  and  _58
REMARK   30  A    between atoms: _58  and  _59
REMARK   31  A    between atoms: _58  and  _61
REMARK   32  A    between atoms: _61  and  _62
REMARK   33  A    between atoms: _62  and  _63
REMARK   34  A    between atoms: _66  and  _68
REMARK   35  A    between atoms: _68  and  _69
REMARK   36  A    between atoms: _68  and  _71
REMARK   37  A    between atoms: _71  and  _72
REMARK   38  A    between atoms: _75  and  _77
REMARK   39  A    between atoms: _77  and  _78
REMARK   40  A    between atoms: _81  and  _83
REMARK   41  A    between atoms: _83  and  _84
REMARK   42  A    between atoms: _83  and  _86
REMARK   43  A    between atoms: _86  and  _87
REMARK   44  A    between atoms: _90  and  _92
REMARK   45  A    between atoms: _92  and  _93
REMARK   46  A    between atoms: _92  and  _95
REMARK   47  A    between atoms: _95  and  _96
REMARK   48  A    between atoms: _96  and  _97
REMARK   49  A    between atoms: _97  and  _98
REMARK   50  A    between atoms: _107  and  _109
REMARK   51  A    between atoms: _109  and  _110
REMARK   52  A    between atoms: _109  and  _112
REMARK   53  A    between atoms: _112  and  _113
REMARK   54  A    between atoms: _113  and  _114
REMARK   55  A    between atoms: _114  and  _115
REMARK   56  A    between atoms: _124  and  _126
REMARK   57  A    between atoms: _126  and  _127
REMARK   58  A    between atoms: _126  and  _129
REMARK   59  A    between atoms: _129  and  _130
REMARK   60  A    between atoms: _133  and  _135
REMARK   61  A    between atoms: _135  and  _136
REMARK   62  A    between atoms: _138  and  _140
REMARK   63  A    between atoms: _140  and  _141
REMARK   64  A    between atoms: _140  and  _143
REMARK   65  A    between atoms: _143  and  _144
REMARK   66  A    between atoms: _144  and  _145
REMARK   67  A    between atoms: _150  and  _152
REMARK   68  A    between atoms: _152  and  _153
REMARK   69  A    between atoms: _152  and  _155
REMARK   70  A    between atoms: _155  and  _156
REMARK   71  A    between atoms: _159  and  _161
REMARK   72  A    between atoms: _161  and  _162
REMARK   73  A    between atoms: _161  and  _164
REMARK   74  A    between atoms: _164  and  _165
REMARK   75  A    between atoms: _165  and  _166
REMARK   76  A    between atoms: _166  and  _167
REMARK   77  A    between atoms: _176  and  _178
REMARK   78  A    between atoms: _178  and  _179
REMARK   79  A    between atoms: _178  and  _181
REMARK   80  A    between atoms: _181  and  _182
REMARK   81  A    between atoms: _187  and  _188
REMARK   82  A    between atoms: _190  and  _192
REMARK   83  A    between atoms: _192  and  _193
REMARK   84  A    between atoms: _192  and  _195
REMARK   85  A    between atoms: _195  and  _196
REMARK   86  A    between atoms: _196  and  _197
REMARK   87  A    between atoms: _199  and  _201
REMARK   88  A    between atoms: _201  and  _202
REMARK   89  A    between atoms: _201  and  _204
REMARK   90  A    between atoms: _207  and  _209
REMARK   91  A    between atoms: _209  and  _210
REMARK   92  A    between atoms: _209  and  _212
REMARK   93  A    between atoms: _212  and  _213
REMARK   94  A    between atoms: _218  and  _220
REMARK   95  A    between atoms: _220  and  _221
REMARK   96  A    between atoms: _220  and  _223
REMARK   97  A    between atoms: _223  and  _224
REMARK   98  A    between atoms: _224  and  _225
REMARK   99  A    between atoms: _225  and  _226
REMARK  100  A    between atoms: _226  and  _227
REMARK  101  A    between atoms: _231  and  _233
REMARK  102  A    between atoms: _233  and  _234
REMARK  103  A    between atoms: _233  and  _236
REMARK  104  A    between atoms: _236  and  _237
REMARK  105  A    between atoms: _240  and  _242
REMARK  106  A    between atoms: _242  and  _243
REMARK  107  A    between atoms: _245  and  _247
REMARK  108  A    between atoms: _247  and  _248
REMARK  109  A    between atoms: _250  and  _252
REMARK  110  A    between atoms: _252  and  _253
REMARK  111  A    between atoms: _252  and  _255
REMARK  112  A    between atoms: _255  and  _256
REMARK  113  A    between atoms: _259  and  _261
REMARK  114  A    between atoms: _261  and  _262
REMARK  115  A    between atoms: _261  and  _264
REMARK  116  A    between atoms: _264  and  _265
REMARK  117  A    between atoms: _271  and  _273
REMARK  118  A    between atoms: _273  and  _274
REMARK  119  A    between atoms: _276  and  _278
REMARK  120  A    between atoms: _278  and  _279
REMARK  121  A    between atoms: _278  and  _281
REMARK  122  A    between atoms: _281  and  _282
REMARK  123  A    between atoms: _287  and  _288
REMARK  124  A    between atoms: _290  and  _292
REMARK  125  A    between atoms: _292  and  _293
REMARK  126  A    between atoms: _292  and  _295
REMARK  127  A    between atoms: _295  and  _296
REMARK  128  A    between atoms: _296  and  _297
REMARK  129  A    between atoms: _302  and  _304
REMARK  130  A    between atoms: _304  and  _305
REMARK  131  A    between atoms: _304  and  _307
REMARK  132  A    between atoms: _307  and  _308
REMARK  133  A    between atoms: _311  and  _313
REMARK  134  A    between atoms: _313  and  _314
REMARK  135  A    between atoms: _313  and  _316
REMARK  136  A    between atoms: _316  and  _317
REMARK  137  A    between atoms: _320  and  _322
REMARK  138  A    between atoms: _322  and  _323
REMARK  139  A    between atoms: _322  and  _325
REMARK  140  A    between atoms: _325  and  _326
REMARK  141  A    between atoms: _331  and  _333
REMARK  142  A    between atoms: _333  and  _334
REMARK  143  A    between atoms: _333  and  _336
REMARK  144  A    between atoms: _336  and  _337
REMARK  145  A    between atoms: _340  and  _342
REMARK  146  A    between atoms: _342  and  _343
REMARK  147  A    between atoms: _342  and  _345
REMARK  148  A    between atoms: _345  and  _346
REMARK  149  A    between atoms: _346  and  _347
REMARK  150  A    between atoms: _350  and  _352
REMARK  151  A    between atoms: _352  and  _353
REMARK  152  A    between atoms: _352  and  _355
REMARK  153  A    between atoms: _355  and  _356
REMARK  154  A    between atoms: _356  and  _357
REMARK  155  A    between atoms: _357  and  _358
REMARK  156  A    between atoms: _358  and  _359
REMARK  157  A    between atoms: _363  and  _365
REMARK  158  A    between atoms: _365  and  _366
REMARK  159  A    between atoms: _365  and  _368
REMARK  160  A    between atoms: _368  and  _369
REMARK                            x       y       z     vdW  Elec       q    Type
REMARK                         _______ _______ _______ _____ _____    ______ ____
ROOT
ATOM      1  C   UNK A   2      27.886  40.667  10.566  0.00  0.00    +0.000 C 
ENDROOT
BRANCH   1   4
ATOM      2  C   ILE A   1      28.318  39.095  12.326  0.00  0.00    +0.000 C 
ATOM      3  O   ILE A   1      27.355  38.414  11.985  0.00  0.00    +0.000 OA
ATOM      4  N   UNK A   2      28.641  40.215  11.713  0.00  0.00    +0.000 N 
ATOM      5  H   UNK A   2      29.445  40.778  12.057  0.00  0.00    +0.000 HD
BRANCH   2   6
ATOM      6  CA  ILE A   1      29.199  38.708  13.510  0.00  0.00    +0.000 C 
BRANCH   6   7
ATOM      7  CB  ILE A   1      28.795  39.577  14.732  0.00  0.00    +0.000 C 
ATOM      8  CG2 ILE A   1      27.316  39.374  15.040  0.00  0.00    +0.000 C 
BRANCH   7   9
ATOM      9  CG1 ILE A   1      29.653  39.211  15.959  0.00  0.00    +0.000 C 
ATOM     10  CD1 ILE A   1      29.190  37.991  16.650  0.00  0.00    +0.000 C 
ENDBRANCH   7   9
ENDBRANCH   6   7
BRANCH   6  11
ATOM     11  N   ILE A   1      30.637  38.884  13.190  0.00  0.00    +0.000 NA
ATOM     12  H   ILE A   1      31.172  39.626  13.684  0.00  0.00    +0.000 HD
ENDBRANCH   6  11
ENDBRANCH   2   6
ENDBRANCH   1   4
BRANCH   1  13
ATOM     13  C   UNK A   2      27.821  39.587   9.472  0.00  0.00    +0.000 C 
ATOM     14  N   ASP A   3      28.936  38.877   9.233  0.00  0.00    +0.000 N 
ATOM     15  H   ASP A   3      29.798  39.058   9.786  0.00  0.00    +0.000 HD
ATOM     16  O   UNK A   2      26.750  39.350   8.881  0.00  0.00    +0.000 OA
BRANCH  14  17
ATOM     17  CA  ASP A   3      28.934  37.855   8.200  0.00  0.00    +0.000 C 
BRANCH  17  18
ATOM     18  C   ASP A   3      28.080  36.653   8.616  0.00  0.00    +0.000 C 
ATOM     19  O   ASP A   3      27.553  35.931   7.791  0.00  0.00    +0.000 OA
ENDBRANCH  17  18
BRANCH  17  20
ATOM     20  CB  ASP A   3      30.376  37.411   7.884  0.00  0.00    +0.000 C 
BRANCH  20  21
ATOM     21  CG  ASP A   3      31.144  38.490   7.106  0.00  0.00    +0.000 C 
ATOM     22  OD2 ASP A   3      32.393  38.512   7.126  0.00  0.00    +0.000 OA
ATOM     23  OD1 ASP A   3      30.479  39.331   6.477  0.00  0.00    +0.000 OA
ENDBRANCH  20  21
ENDBRANCH  17  20
ENDBRANCH  14  17
ENDBRANCH   1  13
BRANCH   1  24
ATOM     24  C   UNK A   2      28.488  41.982  10.018  0.00  0.00    +0.000 C 
BRANCH  24  25
ATOM     25  C   UNK A   2      27.702  42.506   8.884  0.00  0.00    +0.000 C 
BRANCH  25  26
ATOM     26  O   UNK A   2      26.660  43.138   9.142  0.00  0.00    +0.000 OA
BRANCH  26  27
ATOM     27 MG   UNK A   2      25.247  43.681   7.633  0.00  0.00    +0.000 Mg
ATOM     28  O   UNK A   2      24.775  45.518   8.455  0.00  0.00    +0.000 OA
ENDBRANCH  26  27
ENDBRANCH  25  26
BRANCH  25  29
ATOM     29  O   UNK A   2      28.094  42.242   7.729  0.00  0.00    +0.000 OA
BRANCH  29  30
ATOM     30 MG   UNK A   2      27.508  42.433   5.891  0.00  0.00    +0.000 Mg
ATOM     31  O   UNK A   2      28.086  40.515   5.297  0.00  0.00    +0.000 OA
ENDBRANCH  29  30
ENDBRANCH  25  29
ENDBRANCH  24  25
ENDBRANCH   1  24
TORSDOF 16
REMARK  Name = ../refined-set-2016/2e91/2e91_pocket.pdb
REMARK  160 active torsions:
REMARK  status: ('A' for Active; 'I' for Inactive)
REMARK    1  A    between atoms: _1  and  _3
REMARK    2  A    between atoms: _3  and  _4
REMARK    3  A    between atoms: _3  and  _6
REMARK    4  A    between atoms: _6  and  _7
REMARK    5  A    between atoms: _12  and  _14
REMARK    6  A    between atoms: _14  and  _15
REMARK    7  A    between atoms: _14  and  _17
REMARK    8  A    between atoms: _17  and  _18
REMARK    9  A    between atoms: _20  and  _22
REMARK   10  A    between atoms: _22  and  _23
REMARK   11  A    between atoms: _22  and  _25
REMARK   12  A    between atoms: _25  and  _26
REMARK   13  A    between atoms: _29  and  _31
REMARK   14  A    between atoms: _31  and  _32
REMARK   15  A    between atoms: _31  and  _34
REMARK   16  A    between atoms: _34  and  _35
REMARK   17  A    between atoms: _38  and  _40
REMARK   18  A    between atoms: _40  and  _41
REMARK   19  A    between atoms: _40  and  _43
REMARK   20  A    between atoms: _43  and  _44
REMARK   21  A    between atoms: _44  and  _45
REMARK   22  A    between atoms: _44  and  _46
REMARK   23  A    between atoms: _45  and  MG_371
REMARK   24  A    between atoms: _46  and  MG_372
REMARK   25  A    between atoms: _47  and  _49
REMARK   26  A    between atoms: _49  and  _50
REMARK   27  A    between atoms: _49  and  _52
REMARK   28  A    between atoms: _52  and  _53
REMARK   29  A    between atoms: _56  and  _58
REMARK   30  A    between atoms: _58  and  _59
REMARK   31  A    between atoms: _58  and  _61
REMARK   32  A    between atoms: _61  and  _62
REMARK   33  A    between atoms: _62  and  _63
REMARK   34  A    between atoms: _66  and  _68
REMARK   35  A    between atoms: _68  and  _69
REMARK   36  A    between atoms: _68  and  _71
REMARK   37  A    between atoms: _71  and  _72
REMARK   38  A    between atoms: _75  and  _77
REMARK   39  A    between atoms: _77  and  _78
REMARK   40  A    between atoms: _81  and  _83
REMARK   41  A    between atoms: _83  and  _84
REMARK   42  A    between atoms: _83  and  _86
REMARK   43  A    between atoms: _86  and  _87
REMARK   44  A    between atoms: _90  and  _92
REMARK   45  A    between atoms: _92  and  _93
REMARK   46  A    between atoms: _92  and  _95
REMARK   47  A    between atoms: _95  and  _96
REMARK   48  A    between atoms: _96  and  _97
REMARK   49  A    between atoms: _97  and  _98
REMARK   50  A    between atoms: _107  and  _109
REMARK   51  A    between atoms: _109  and  _110
REMARK   52  A    between atoms: _109  and  _112
REMARK   53  A    between atoms: _112  and  _113
REMARK   54  A    between atoms: _113  and  _114
REMARK   55  A    between atoms: _114  and  _115
REMARK   56  A    between atoms: _124  and  _126
REMARK   57  A    between atoms: _126  and  _127
REMARK   58  A    between atoms: _126  and  _129
REMARK   59  A    between atoms: _129  and  _130
REMARK   60  A    between atoms: _133  and  _135
REMARK   61  A    between atoms: _135  and  _136
REMARK   62  A    between atoms: _138  and  _140
REMARK   63  A    between atoms: _140  and  _141
REMARK   64  A    between atoms: _140  and  _143
REMARK   65  A    between atoms: _143  and  _144
REMARK   66  A    between atoms: _144  and  _145
REMARK   67  A    between atoms: _150  and  _152
REMARK   68  A    between atoms: _152  and  _153
REMARK   69  A    between atoms: _152  and  _155
REMARK   70  A    between atoms: _155  and  _156
REMARK   71  A    between atoms: _159  and  _161
REMARK   72  A    between atoms: _161  and  _162
REMARK   73  A    between atoms: _161  and  _164
REMARK   74  A    between atoms: _164  and  _165
REMARK   75  A    between atoms: _165  and  _166
REMARK   76  A    between atoms: _166  and  _167
REMARK   77  A    between atoms: _176  and  _178
REMARK   78  A    between atoms: _178  and  _179
REMARK   79  A    between atoms: _178  and  _181
REMARK   80  A    between atoms: _181  and  _182
REMARK   81  A    between atoms: _187  and  _188
REMARK   82  A    between atoms: _190  and  _192
REMARK   83  A    between atoms: _192  and  _193
REMARK   84  A    between atoms: _192  and  _195
REMARK   85  A    between atoms: _195  and  _196
REMARK   86  A    between atoms: _196  and  _197
REMARK   87  A    between atoms: _199  and  _201
REMARK   88  A    between atoms: _201  and  _202
REMARK   89  A    between atoms: _201  and  _204
REMARK   90  A    between atoms: _207  and  _209
REMARK   91  A    between atoms: _209  and  _210
REMARK   92  A    between atoms: _209  and  _212
REMARK   93  A    between atoms: _212  and  _213
REMARK   94  A    between atoms: _218  and  _220
REMARK   95  A    between atoms: _220  and  _221
REMARK   96  A    between atoms: _220  and  _223
REMARK   97  A    between atoms: _223  and  _224
REMARK   98  A    between atoms: _224  and  _225
REMARK   99  A    between atoms: _225  and  _226
REMARK  100  A    between atoms: _226  and  _227
REMARK  101  A    between atoms: _231  and  _233
REMARK  102  A    between atoms: _233  and  _234
REMARK  103  A    between atoms: _233  and  _236
REMARK  104  A    between atoms: _236  and  _237
REMARK  105  A    between atoms: _240  and  _242
REMARK  106  A    between atoms: _242  and  _243
REMARK  107  A    between atoms: _245  and  _247
REMARK  108  A    between atoms: _247  and  _248
REMARK  109  A    between atoms: _250  and  _252
REMARK  110  A    between atoms: _252  and  _253
REMARK  111  A    between atoms: _252  and  _255
REMARK  112  A    between atoms: _255  and  _256
REMARK  113  A    between atoms: _259  and  _261
REMARK  114  A    between atoms: _261  and  _262
REMARK  115  A    between atoms: _261  and  _264
REMARK  116  A    between atoms: _264  and  _265
REMARK  117  A    between atoms: _271  and  _273
REMARK  118  A    between atoms: _273  and  _274
REMARK  119  A    between atoms: _276  and  _278
REMARK  120  A    between atoms: _278  and  _279
REMARK  121  A    between atoms: _278  and  _281
REMARK  122  A    between atoms: _281  and  _282
REMARK  123  A    between atoms: _287  and  _288
REMARK  124  A    between atoms: _290  and  _292
REMARK  125  A    between atoms: _292  and  _293
REMARK  126  A    between atoms: _292  and  _295
REMARK  127  A    between atoms: _295  and  _296
REMARK  128  A    between atoms: _296  and  _297
REMARK  129  A    between atoms: _302  and  _304
REMARK  130  A    between atoms: _304  and  _305
REMARK  131  A    between atoms: _304  and  _307
REMARK  132  A    between atoms: _307  and  _308
REMARK  133  A    between atoms: _311  and  _313
REMARK  134  A    between atoms: _313  and  _314
REMARK  135  A    between atoms: _313  and  _316
REMARK  136  A    between atoms: _316  and  _317
REMARK  137  A    between atoms: _320  and  _322
REMARK  138  A    between atoms: _322  and  _323
REMARK  139  A    between atoms: _322  and  _325
REMARK  140  A    between atoms: _325  and  _326
REMARK  141  A    between atoms: _331  and  _333
REMARK  142  A    between atoms: _333  and  _334
REMARK  143  A    between atoms: _333  and  _336
REMARK  144  A    between atoms: _336  and  _337
REMARK  145  A    between atoms: _340  and  _342
REMARK  146  A    between atoms: _342  and  _343
REMARK  147  A    between atoms: _342  and  _345
REMARK  148  A    between atoms: _345  and  _346
REMARK  149  A    between atoms: _346  and  _347
REMARK  150  A    between atoms: _350  and  _352
REMARK  151  A    between atoms: _352  and  _353
REMARK  152  A    between atoms: _352  and  _355
REMARK  153  A    between atoms: _355  and  _356
REMARK  154  A    between atoms: _356  and  _357
REMARK  155  A    between atoms: _357  and  _358
REMARK  156  A    between atoms: _358  and  _359
REMARK  157  A    between atoms: _363  and  _365
REMARK  158  A    between atoms: _365  and  _366
REMARK  159  A    between atoms: _365  and  _368
REMARK  160  A    between atoms: _368  and  _369
REMARK                            x       y       z     vdW  Elec       q    Type
REMARK                         _______ _______ _______ _____ _____    ______ ____
ROOT
ATOM      1  C   GLU A   1      23.574  37.748   8.918  0.00  0.00    +0.238 C 
ATOM      2  O   GLU A   1      22.401  37.580   8.644  0.00  0.00    -0.274 OA
ATOM      3  N   ASP A   2      24.494  38.044   8.007  0.00  0.00    -0.298 N 
ATOM      4  H   ASP A   2      25.486  38.120   8.310  0.00  0.00    +0.150 HD
ENDROOT
BRANCH   1   5
ATOM      5  CA  GLU A   1      24.067  37.613  10.363  0.00  0.00    +0.145 C 
BRANCH   5   6
ATOM      6  N   GLU A   1      25.404  37.052  10.487  0.00  0.00    -0.238 NA
ATOM      7  H   GLU A   1      26.157  37.622  10.922  0.00  0.00    +0.142 HD
ENDBRANCH   5   6
BRANCH   5   8
ATOM      8  CB  GLU A   1      24.049  38.988  11.085  0.00  0.00    +0.038 C 
BRANCH   8   9
ATOM      9  CG  GLU A   1      24.170  38.845  12.587  0.00  0.00    +0.116 C 
BRANCH   9  10
ATOM     10  CD  GLU A   1      24.376  40.111  13.337  0.00  0.00    +0.365 C 
ATOM     11  OE2 GLU A   1      24.225  40.079  14.590  0.00  0.00    -0.246 OA
ATOM     12  OE1 GLU A   1      24.702  41.134  12.746  0.00  0.00    -0.246 OA
ENDBRANCH   9  10
ENDBRANCH   8   9
ENDBRANCH   5   8
ENDBRANCH   1   5
BRANCH   3  13
ATOM     13  CA  ASP A   2      24.178  38.266   6.609  0.00  0.00    +0.148 C 
BRANCH  13  14
ATOM     14  C   ASP A   2      24.405  37.006   5.789  0.00  0.00    +0.227 C 
ATOM     15  O   ASP A   2      24.275  37.033   4.579  0.00  0.00    -0.286 OA
ENDBRANCH  13  14
BRANCH  13  16
ATOM     16  CB  ASP A   2      25.038  39.434   6.072  0.00  0.00    +0.142 C 
BRANCH  16  17
ATOM     17  CG  ASP A   2      24.783  40.760   6.843  0.00  0.00    +0.367 C 
ATOM     18  OD2 ASP A   2      23.862  40.785   7.686  0.00  0.00    -0.246 OA
ATOM     19  OD1 ASP A   2      25.468  41.785   6.600  0.00  0.00    -0.246 OA
ENDBRANCH  16  17
ENDBRANCH  13  16
ENDBRANCH   3  13
TORSDOF 9
REMARK  Name = ../refined-set-2016/2e91/2e91_pocket.pdb
REMARK  160 active torsions:
REMARK  status: ('A' for Active; 'I' for Inactive)
REMARK    1  A    between atoms: _1  and  _3
REMARK    2  A    between atoms: _3  and  _4
REMARK    3  A    between atoms: _3  and  _6
REMARK    4  A    between atoms: _6  and  _7
REMARK    5  A    between atoms: _12  and  _14
REMARK    6  A    between atoms: _14  and  _15
REMARK    7  A    between atoms: _14  and  _17
REMARK    8  A    between atoms: _17  and  _18
REMARK    9  A    between atoms: _20  and  _22
REMARK   10  A    between atoms: _22  and  _23
REMARK   11  A    between atoms: _22  and  _25
REMARK   12  A    between atoms: _25  and  _26
REMARK   13  A    between atoms: _29  and  _31
REMARK   14  A    between atoms: _31  and  _32
REMARK   15  A    between atoms: _31  and  _34
REMARK   16  A    between atoms: _34  and  _35
REMARK   17  A    between atoms: _38  and  _40
REMARK   18  A    between atoms: _40  and  _41
REMARK   19  A    between atoms: _40  and  _43
REMARK   20  A    between atoms: _43  and  _44
REMARK   21  A    between atoms: _44  and  _45
REMARK   22  A    between atoms: _44  and  _46
REMARK   23  A    between atoms: _45  and  MG_371
REMARK   24  A    between atoms: _46  and  MG_372
REMARK   25  A    between atoms: _47  and  _49
REMARK   26  A    between atoms: _49  and  _50
REMARK   27  A    between atoms: _49  and  _52
REMARK   28  A    between atoms: _52  and  _53
REMARK   29  A    between atoms: _56  and  _58
REMARK   30  A    between atoms: _58  and  _59
REMARK   31  A    between atoms: _58  and  _61
REMARK   32  A    between atoms: _61  and  _62
REMARK   33  A    between atoms: _62  and  _63
REMARK   34  A    between atoms: _66  and  _68
REMARK   35  A    between atoms: _68  and  _69
REMARK   36  A    between atoms: _68  and  _71
REMARK   37  A    between atoms: _71  and  _72
REMARK   38  A    between atoms: _75  and  _77
REMARK   39  A    between atoms: _77  and  _78
REMARK   40  A    between atoms: _81  and  _83
REMARK   41  A    between atoms: _83  and  _84
REMARK   42  A    between atoms: _83  and  _86
REMARK   43  A    between atoms: _86  and  _87
REMARK   44  A    between atoms: _90  and  _92
REMARK   45  A    between atoms: _92  and  _93
REMARK   46  A    between atoms: _92  and  _95
REMARK   47  A    between atoms: _95  and  _96
REMARK   48  A    between atoms: _96  and  _97
REMARK   49  A    between atoms: _97  and  _98
REMARK   50  A    between atoms: _107  and  _109
REMARK   51  A    between atoms: _109  and  _110
REMARK   52  A    between atoms: _109  and  _112
REMARK   53  A    between atoms: _112  and  _113
REMARK   54  A    between atoms: _113  and  _114
REMARK   55  A    between atoms: _114  and  _115
REMARK   56  A    between atoms: _124  and  _126
REMARK   57  A    between atoms: _126  and  _127
REMARK   58  A    between atoms: _126  and  _129
REMARK   59  A    between atoms: _129  and  _130
REMARK   60  A    between atoms: _133  and  _135
REMARK   61  A    between atoms: _135  and  _136
REMARK   62  A    between atoms: _138  and  _140
REMARK   63  A    between atoms: _140  and  _141
REMARK   64  A    between atoms: _140  and  _143
REMARK   65  A    between atoms: _143  and  _144
REMARK   66  A    between atoms: _144  and  _145
REMARK   67  A    between atoms: _150  and  _152
REMARK   68  A    between atoms: _152  and  _153
REMARK   69  A    between atoms: _152  and  _155
REMARK   70  A    between atoms: _155  and  _156
REMARK   71  A    between atoms: _159  and  _161
REMARK   72  A    between atoms: _161  and  _162
REMARK   73  A    between atoms: _161  and  _164
REMARK   74  A    between atoms: _164  and  _165
REMARK   75  A    between atoms: _165  and  _166
REMARK   76  A    between atoms: _166  and  _167
REMARK   77  A    between atoms: _176  and  _178
REMARK   78  A    between atoms: _178  and  _179
REMARK   79  A    between atoms: _178  and  _181
REMARK   80  A    between atoms: _181  and  _182
REMARK   81  A    between atoms: _187  and  _188
REMARK   82  A    between atoms: _190  and  _192
REMARK   83  A    between atoms: _192  and  _193
REMARK   84  A    between atoms: _192  and  _195
REMARK   85  A    between atoms: _195  and  _196
REMARK   86  A    between atoms: _196  and  _197
REMARK   87  A    between atoms: _199  and  _201
REMARK   88  A    between atoms: _201  and  _202
REMARK   89  A    between atoms: _201  and  _204
REMARK   90  A    between atoms: _207  and  _209
REMARK   91  A    between atoms: _209  and  _210
REMARK   92  A    between atoms: _209  and  _212
REMARK   93  A    between atoms: _212  and  _213
REMARK   94  A    between atoms: _218  and  _220
REMARK   95  A    between atoms: _220  and  _221
REMARK   96  A    between atoms: _220  and  _223
REMARK   97  A    between atoms: _223  and  _224
REMARK   98  A    between atoms: _224  and  _225
REMARK   99  A    between atoms: _225  and  _226
REMARK  100  A    between atoms: _226  and  _227
REMARK  101  A    between atoms: _231  and  _233
REMARK  102  A    between atoms: _233  and  _234
REMARK  103  A    between atoms: _233  and  _236
REMARK  104  A    between atoms: _236  and  _237
REMARK  105  A    between atoms: _240  and  _242
REMARK  106  A    between atoms: _242  and  _243
REMARK  107  A    between atoms: _245  and  _247
REMARK  108  A    between atoms: _247  and  _248
REMARK  109  A    between atoms: _250  and  _252
REMARK  110  A    between atoms: _252  and  _253
REMARK  111  A    between atoms: _252  and  _255
REMARK  112  A    between atoms: _255  and  _256
REMARK  113  A    between atoms: _259  and  _261
REMARK  114  A    between atoms: _261  and  _262
REMARK  115  A    between atoms: _261  and  _264
REMARK  116  A    between atoms: _264  and  _265
REMARK  117  A    between atoms: _271  and  _273
REMARK  118  A    between atoms: _273  and  _274
REMARK  119  A    between atoms: _276  and  _278
REMARK  120  A    between atoms: _278  and  _279
REMARK  121  A    between atoms: _278  and  _281
REMARK  122  A    between atoms: _281  and  _282
REMARK  123  A    between atoms: _287  and  _288
REMARK  124  A    between atoms: _290  and  _292
REMARK  125  A    between atoms: _292  and  _293
REMARK  126  A    between atoms: _292  and  _295
REMARK  127  A    between atoms: _295  and  _296
REMARK  128  A    between atoms: _296  and  _297
REMARK  129  A    between atoms: _302  and  _304
REMARK  130  A    between atoms: _304  and  _305
REMARK  131  A    between atoms: _304  and  _307
REMARK  132  A    between atoms: _307  and  _308
REMARK  133  A    between atoms: _311  and  _313
REMARK  134  A    between atoms: _313  and  _314
REMARK  135  A    between atoms: _313  and  _316
REMARK  136  A    between atoms: _316  and  _317
REMARK  137  A    between atoms: _320  and  _322
REMARK  138  A    between atoms: _322  and  _323
REMARK  139  A    between atoms: _322  and  _325
REMARK  140  A    between atoms: _325  and  _326
REMARK  141  A    between atoms: _331  and  _333
REMARK  142  A    between atoms: _333  and  _334
REMARK  143  A    between atoms: _333  and  _336
REMARK  144  A    between atoms: _336  and  _337
REMARK  145  A    between atoms: _340  and  _342
REMARK  146  A    between atoms: _342  and  _343
REMARK  147  A    between atoms: _342  and  _345
REMARK  148  A    between atoms: _345  and  _346
REMARK  149  A    between atoms: _346  and  _347
REMARK  150  A    between atoms: _350  and  _352
REMARK  151  A    between atoms: _352  and  _353
REMARK  152  A    between atoms: _352  and  _355
REMARK  153  A    between atoms: _355  and  _356
REMARK  154  A    between atoms: _356  and  _357
REMARK  155  A    between atoms: _357  and  _358
REMARK  156  A    between atoms: _358  and  _359
REMARK  157  A    between atoms: _363  and  _365
REMARK  158  A    between atoms: _365  and  _366
REMARK  159  A    between atoms: _365  and  _368
REMARK  160  A    between atoms: _368  and  _369
REMARK                            x       y       z     vdW  Elec       q    Type
REMARK                         _______ _______ _______ _____ _____    ______ ____
ROOT
ATOM      1  CA  ALA A   1      28.059  35.898   3.899  0.00  0.00    +0.133 C 
ATOM      2  CB  ALA A   1      28.762  37.227   4.276  0.00  0.00    +0.027 C 
ENDROOT
BRANCH   1   3
ATOM      3  N   ALA A   1      27.074  35.601   4.911  0.00  0.00    -0.239 NA
ATOM      4  H   ALA A   1      27.191  35.985   5.870  0.00  0.00    +0.142 HD
ENDBRANCH   1   3
BRANCH   1   5
ATOM      5  C   ALA A   1      29.106  34.777   3.667  0.00  0.00    +0.224 C 
ATOM      6  O   ALA A   1      29.712  34.232   4.622  0.00  0.00    -0.287 OA
ENDBRANCH   1   5
TORSDOF 2
REMARK  Name = ../refined-set-2016/2e91/2e91_pocket.pdb
REMARK  160 active torsions:
REMARK  status: ('A' for Active; 'I' for Inactive)
REMARK    1  A    between atoms: _1  and  _3
REMARK    2  A    between atoms: _3  and  _4
REMARK    3  A    between atoms: _3  and  _6
REMARK    4  A    between atoms: _6  and  _7
REMARK    5  A    between atoms: _12  and  _14
REMARK    6  A    between atoms: _14  and  _15
REMARK    7  A    between atoms: _14  and  _17
REMARK    8  A    between atoms: _17  and  _18
REMARK    9  A    between atoms: _20  and  _22
REMARK   10  A    between atoms: _22  and  _23
REMARK   11  A    between atoms: _22  and  _25
REMARK   12  A    between atoms: _25  and  _26
REMARK   13  A    between atoms: _29  and  _31
REMARK   14  A    between atoms: _31  and  _32
REMARK   15  A    between atoms: _31  and  _34
REMARK   16  A    between atoms: _34  and  _35
REMARK   17  A    between atoms: _38  and  _40
REMARK   18  A    between atoms: _40  and  _41
REMARK   19  A    between atoms: _40  and  _43
REMARK   20  A    between atoms: _43  and  _44
REMARK   21  A    between atoms: _44  and  _45
REMARK   22  A    between atoms: _44  and  _46
REMARK   23  A    between atoms: _45  and  MG_371
REMARK   24  A    between atoms: _46  and  MG_372
REMARK   25  A    between atoms: _47  and  _49
REMARK   26  A    between atoms: _49  and  _50
REMARK   27  A    between atoms: _49  and  _52
REMARK   28  A    between atoms: _52  and  _53
REMARK   29  A    between atoms: _56  and  _58
REMARK   30  A    between atoms: _58  and  _59
REMARK   31  A    between atoms: _58  and  _61
REMARK   32  A    between atoms: _61  and  _62
REMARK   33  A    between atoms: _62  and  _63
REMARK   34  A    between atoms: _66  and  _68
REMARK   35  A    between atoms: _68  and  _69
REMARK   36  A    between atoms: _68  and  _71
REMARK   37  A    between atoms: _71  and  _72
REMARK   38  A    between atoms: _75  and  _77
REMARK   39  A    between atoms: _77  and  _78
REMARK   40  A    between atoms: _81  and  _83
REMARK   41  A    between atoms: _83  and  _84
REMARK   42  A    between atoms: _83  and  _86
REMARK   43  A    between atoms: _86  and  _87
REMARK   44  A    between atoms: _90  and  _92
REMARK   45  A    between atoms: _92  and  _93
REMARK   46  A    between atoms: _92  and  _95
REMARK   47  A    between atoms: _95  and  _96
REMARK   48  A    between atoms: _96  and  _97
REMARK   49  A    between atoms: _97  and  _98
REMARK   50  A    between atoms: _107  and  _109
REMARK   51  A    between atoms: _109  and  _110
REMARK   52  A    between atoms: _109  and  _112
REMARK   53  A    between atoms: _112  and  _113
REMARK   54  A    between atoms: _113  and  _114
REMARK   55  A    between atoms: _114  and  _115
REMARK   56  A    between atoms: _124  and  _126
REMARK   57  A    between atoms: _126  and  _127
REMARK   58  A    between atoms: _126  and  _129
REMARK   59  A    between atoms: _129  and  _130
REMARK   60  A    between atoms: _133  and  _135
REMARK   61  A    between atoms: _135  and  _136
REMARK   62  A    between atoms: _138  and  _140
REMARK   63  A    between atoms: _140  and  _141
REMARK   64  A    between atoms: _140  and  _143
REMARK   65  A    between atoms: _143  and  _144
REMARK   66  A    between atoms: _144  and  _145
REMARK   67  A    between atoms: _150  and  _152
REMARK   68  A    between atoms: _152  and  _153
REMARK   69  A    between atoms: _152  and  _155
REMARK   70  A    between atoms: _155  and  _156
REMARK   71  A    between atoms: _159  and  _161
REMARK   72  A    between atoms: _161  and  _162
REMARK   73  A    between atoms: _161  and  _164
REMARK   74  A    between atoms: _164  and  _165
REMARK   75  A    between atoms: _165  and  _166
REMARK   76  A    between atoms: _166  and  _167
REMARK   77  A    between atoms: _176  and  _178
REMARK   78  A    between atoms: _178  and  _179
REMARK   79  A    between atoms: _178  and  _181
REMARK   80  A    between atoms: _181  and  _182
REMARK   81  A    between atoms: _187  and  _188
REMARK   82  A    between atoms: _190  and  _192
REMARK   83  A    between atoms: _192  and  _193
REMARK   84  A    between atoms: _192  and  _195
REMARK   85  A    between atoms: _195  and  _196
REMARK   86  A    between atoms: _196  and  _197
REMARK   87  A    between atoms: _199  and  _201
REMARK   88  A    between atoms: _201  and  _202
REMARK   89  A    between atoms: _201  and  _204
REMARK   90  A    between atoms: _207  and  _209
REMARK   91  A    between atoms: _209  and  _210
REMARK   92  A    between atoms: _209  and  _212
REMARK   93  A    between atoms: _212  and  _213
REMARK   94  A    between atoms: _218  and  _220
REMARK   95  A    between atoms: _220  and  _221
REMARK   96  A    between atoms: _220  and  _223
REMARK   97  A    between atoms: _223  and  _224
REMARK   98  A    between atoms: _224  and  _225
REMARK   99  A    between atoms: _225  and  _226
REMARK  100  A    between atoms: _226  and  _227
REMARK  101  A    between atoms: _231  and  _233
REMARK  102  A    between atoms: _233  and  _234
REMARK  103  A    between atoms: _233  and  _236
REMARK  104  A    between atoms: _236  and  _237
REMARK  105  A    between atoms: _240  and  _242
REMARK  106  A    between atoms: _242  and  _243
REMARK  107  A    between atoms: _245  and  _247
REMARK  108  A    between atoms: _247  and  _248
REMARK  109  A    between atoms: _250  and  _252
REMARK  110  A    between atoms: _252  and  _253
REMARK  111  A    between atoms: _252  and  _255
REMARK  112  A    between atoms: _255  and  _256
REMARK  113  A    between atoms: _259  and  _261
REMARK  114  A    between atoms: _261  and  _262
REMARK  115  A    between atoms: _261  and  _264
REMARK  116  A    between atoms: _264  and  _265
REMARK  117  A    between atoms: _271  and  _273
REMARK  118  A    between atoms: _273  and  _274
REMARK  119  A    between atoms: _276  and  _278
REMARK  120  A    between atoms: _278  and  _279
REMARK  121  A    between atoms: _278  and  _281
REMARK  122  A    between atoms: _281  and  _282
REMARK  123  A    between atoms: _287  and  _288
REMARK  124  A    between atoms: _290  and  _292
REMARK  125  A    between atoms: _292  and  _293
REMARK  126  A    between atoms: _292  and  _295
REMARK  127  A    between atoms: _295  and  _296
REMARK  128  A    between atoms: _296  and  _297
REMARK  129  A    between atoms: _302  and  _304
REMARK  130  A    between atoms: _304  and  _305
REMARK  131  A    between atoms: _304  and  _307
REMARK  132  A    between atoms: _307  and  _308
REMARK  133  A    between atoms: _311  and  _313
REMARK  134  A    between atoms: _313  and  _314
REMARK  135  A    between atoms: _313  and  _316
REMARK  136  A    between atoms: _316  and  _317
REMARK  137  A    between atoms: _320  and  _322
REMARK  138  A    between atoms: _322  and  _323
REMARK  139  A    between atoms: _322  and  _325
REMARK  140  A    between atoms: _325  and  _326
REMARK  141  A    between atoms: _331  and  _333
REMARK  142  A    between atoms: _333  and  _334
REMARK  143  A    between atoms: _333  and  _336
REMARK  144  A    between atoms: _336  and  _337
REMARK  145  A    between atoms: _340  and  _342
REMARK  146  A    between atoms: _342  and  _343
REMARK  147  A    between atoms: _342  and  _345
REMARK  148  A    between atoms: _345  and  _346
REMARK  149  A    between atoms: _346  and  _347
REMARK  150  A    between atoms: _350  and  _352
REMARK  151  A    between atoms: _352  and  _353
REMARK  152  A    between atoms: _352  and  _355
REMARK  153  A    between atoms: _355  and  _356
REMARK  154  A    between atoms: _356  and  _357
REMARK  155  A    between atoms: _357  and  _358
REMARK  156  A    between atoms: _358  and  _359
REMARK  157  A    between atoms: _363  and  _365
REMARK  158  A    between atoms: _365  and  _366
REMARK  159  A    between atoms: _365  and  _368
REMARK  160  A    between atoms: _368  and  _369
REMARK                            x       y       z     vdW  Elec       q    Type
REMARK                         _______ _______ _______ _____ _____    ______ ____
ROOT
ATOM      1  CA  ARG A   2      34.942  38.623   3.049  0.00  0.00    +0.149 C 
ENDROOT
BRANCH   1   3
ATOM      2  C   LEU A   1      33.409  37.032   2.055  0.00  0.00    +0.238 C 
ATOM      3  N   ARG A   2      34.640  37.310   2.475  0.00  0.00    -0.297 N 
ATOM      4  H   ARG A   2      35.390  36.593   2.396  0.00  0.00    +0.150 HD
ATOM      5  O   LEU A   1      32.472  37.808   2.166  0.00  0.00    -0.274 OA
BRANCH   2   6
ATOM      6  CA  LEU A   1      33.195  35.703   1.394  0.00  0.00    +0.145 C 
BRANCH   6   7
ATOM      7  N   LEU A   1      31.874  35.150   1.624  0.00  0.00    -0.238 NA
ATOM      8  H   LEU A   1      31.030  35.743   1.489  0.00  0.00    +0.142 HD
ENDBRANCH   6   7
BRANCH   6   9
ATOM      9  CB  LEU A   1      33.384  35.927  -0.122  0.00  0.00    +0.026 C 
BRANCH   9  10
ATOM     10  CG  LEU A   1      33.421  34.716  -1.034  0.00  0.00    +0.002 C 
ATOM     11  CD2 LEU A   1      34.662  33.923  -0.694  0.00  0.00    +0.000 C 
ATOM     12  CD1 LEU A   1      33.446  35.169  -2.517  0.00  0.00    +0.000 C 
ENDBRANCH   9  10
ENDBRANCH   6   9
ENDBRANCH   2   6
ENDBRANCH   1   3
BRANCH   1  13
ATOM     13  C   ARG A   2      36.368  38.935   2.603  0.00  0.00    +0.241 C 
ATOM     14  O   ARG A   2      37.326  38.266   3.010  0.00  0.00    -0.273 OA
ATOM     15  N   ARG A   3      36.487  39.938   1.744  0.00  0.00    -0.298 N 
ATOM     16  H   ARG A   3      35.631  40.440   1.433  0.00  0.00    +0.150 HD
BRANCH  15  17
ATOM     17  CA  ARG A   3      37.777  40.358   1.223  0.00  0.00    +0.137 C 
BRANCH  17  18
ATOM     18  C   ARG A   3      38.346  39.149   0.471  0.00  0.00    +0.227 C 
ATOM     19  O   ARG A   3      39.391  38.599   0.824  0.00  0.00    -0.286 OA
ENDBRANCH  17  18
BRANCH  17  20
ATOM     20  CB  ARG A   3      38.696  40.815   2.386  0.00  0.00    +0.031 C 
BRANCH  20  21
ATOM     21  CG  ARG A   3      38.384  42.260   2.992  0.00  0.00    +0.045 C 
BRANCH  21  22
ATOM     22  CD  ARG A   3      37.089  42.334   3.930  0.00  0.00    +0.174 C 
BRANCH  22  23
ATOM     23  NE  ARG A   3      36.631  43.691   4.360  0.00  0.00    -0.265 N 
ATOM     24  CZ  ARG A   3      37.065  44.343   5.443  0.00  0.00    +0.342 C 
ATOM     25  NH2 ARG A   3      37.974  43.789   6.251  0.00  0.00    -0.292 N 
ATOM     26 HH21 ARG A   3      38.306  44.304   7.091  0.00  0.00    +0.255 HD
ATOM     27 HH22 ARG A   3      38.350  42.843   6.039  0.00  0.00    +0.255 HD
ATOM     28  NH1 ARG A   3      36.610  45.564   5.714  0.00  0.00    -0.292 N 
ATOM     29 HH11 ARG A   3      36.949  46.070   6.557  0.00  0.00    +0.255 HD
ATOM     30 HH12 ARG A   3      35.916  46.012   5.083  0.00  0.00    +0.255 HD
ATOM     31  HE  ARG A   3      35.918  44.165   3.769  0.00  0.00    +0.259 HD
ENDBRANCH  22  23
ENDBRANCH  21  22
ENDBRANCH  20  21
ENDBRANCH  17  20
ENDBRANCH  15  17
ENDBRANCH   1  13
BRANCH   1  32
ATOM     32  CB  ARG A   2      34.798  38.600   4.593  0.00  0.00    +0.033 C 
BRANCH  32  33
ATOM     33  CG  ARG A   2      35.567  39.658   5.421  0.00  0.00    +0.045 C 
BRANCH  33  34
ATOM     34  CD  ARG A   2      34.928  41.043   5.609  0.00  0.00    +0.174 C 
BRANCH  34  35
ATOM     35  NE  ARG A   2      33.557  41.027   6.119  0.00  0.00    -0.265 N 
ATOM     36  HE  ARG A   2      33.222  40.182   6.624  0.00  0.00    +0.259 HD
ATOM     37  CZ  ARG A   2      32.726  42.045   5.964  0.00  0.00    +0.342 C 
ATOM     38  NH2 ARG A   2      31.471  41.975   6.366  0.00  0.00    -0.292 N 
ATOM     39 HH21 ARG A   2      31.117  41.107   6.815  0.00  0.00    +0.255 HD
ATOM     40 HH22 ARG A   2      30.836  42.788   6.233  0.00  0.00    +0.255 HD
ATOM     41  NH1 ARG A   2      33.146  43.130   5.351  0.00  0.00    -0.292 N 
ATOM     42 HH11 ARG A   2      32.503  43.937   5.223  0.00  0.00    +0.255 HD
ATOM     43 HH12 ARG A   2      34.122  43.181   4.994  0.00  0.00    +0.255 HD
ENDBRANCH  34  35
ENDBRANCH  33  34
ENDBRANCH  32  33
ENDBRANCH   1  32
TORSDOF 16
REMARK  Name = ../refined-set-2016/2e91/2e91_pocket.pdb
REMARK  160 active torsions:
REMARK  status: ('A' for Active; 'I' for Inactive)
REMARK    1  A    between atoms: _1  and  _3
REMARK    2  A    between atoms: _3  and  _4
REMARK    3  A    between atoms: _3  and  _6
REMARK    4  A    between atoms: _6  and  _7
REMARK    5  A    between atoms: _12  and  _14
REMARK    6  A    between atoms: _14  and  _15
REMARK    7  A    between atoms: _14  and  _17
REMARK    8  A    between atoms: _17  and  _18
REMARK    9  A    between atoms: _20  and  _22
REMARK   10  A    between atoms: _22  and  _23
REMARK   11  A    between atoms: _22  and  _25
REMARK   12  A    between atoms: _25  and  _26
REMARK   13  A    between atoms: _29  and  _31
REMARK   14  A    between atoms: _31  and  _32
REMARK   15  A    between atoms: _31  and  _34
REMARK   16  A    between atoms: _34  and  _35
REMARK   17  A    between atoms: _38  and  _40
REMARK   18  A    between atoms: _40  and  _41
REMARK   19  A    between atoms: _40  and  _43
REMARK   20  A    between atoms: _43  and  _44
REMARK   21  A    between atoms: _44  and  _45
REMARK   22  A    between atoms: _44  and  _46
REMARK   23  A    between atoms: _45  and  MG_371
REMARK   24  A    between atoms: _46  and  MG_372
REMARK   25  A    between atoms: _47  and  _49
REMARK   26  A    between atoms: _49  and  _50
REMARK   27  A    between atoms: _49  and  _52
REMARK   28  A    between atoms: _52  and  _53
REMARK   29  A    between atoms: _56  and  _58
REMARK   30  A    between atoms: _58  and  _59
REMARK   31  A    between atoms: _58  and  _61
REMARK   32  A    between atoms: _61  and  _62
REMARK   33  A    between atoms: _62  and  _63
REMARK   34  A    between atoms: _66  and  _68
REMARK   35  A    between atoms: _68  and  _69
REMARK   36  A    between atoms: _68  and  _71
REMARK   37  A    between atoms: _71  and  _72
REMARK   38  A    between atoms: _75  and  _77
REMARK   39  A    between atoms: _77  and  _78
REMARK   40  A    between atoms: _81  and  _83
REMARK   41  A    between atoms: _83  and  _84
REMARK   42  A    between atoms: _83  and  _86
REMARK   43  A    between atoms: _86  and  _87
REMARK   44  A    between atoms: _90  and  _92
REMARK   45  A    between atoms: _92  and  _93
REMARK   46  A    between atoms: _92  and  _95
REMARK   47  A    between atoms: _95  and  _96
REMARK   48  A    between atoms: _96  and  _97
REMARK   49  A    between atoms: _97  and  _98
REMARK   50  A    between atoms: _107  and  _109
REMARK   51  A    between atoms: _109  and  _110
REMARK   52  A    between atoms: _109  and  _112
REMARK   53  A    between atoms: _112  and  _113
REMARK   54  A    between atoms: _113  and  _114
REMARK   55  A    between atoms: _114  and  _115
REMARK   56  A    between atoms: _124  and  _126
REMARK   57  A    between atoms: _126  and  _127
REMARK   58  A    between atoms: _126  and  _129
REMARK   59  A    between atoms: _129  and  _130
REMARK   60  A    between atoms: _133  and  _135
REMARK   61  A    between atoms: _135  and  _136
REMARK   62  A    between atoms: _138  and  _140
REMARK   63  A    between atoms: _140  and  _141
REMARK   64  A    between atoms: _140  and  _143
REMARK   65  A    between atoms: _143  and  _144
REMARK   66  A    between atoms: _144  and  _145
REMARK   67  A    between atoms: _150  and  _152
REMARK   68  A    between atoms: _152  and  _153
REMARK   69  A    between atoms: _152  and  _155
REMARK   70  A    between atoms: _155  and  _156
REMARK   71  A    between atoms: _159  and  _161
REMARK   72  A    between atoms: _161  and  _162
REMARK   73  A    between atoms: _161  and  _164
REMARK   74  A    between atoms: _164  and  _165
REMARK   75  A    between atoms: _165  and  _166
REMARK   76  A    between atoms: _166  and  _167
REMARK   77  A    between atoms: _176  and  _178
REMARK   78  A    between atoms: _178  and  _179
REMARK   79  A    between atoms: _178  and  _181
REMARK   80  A    between atoms: _181  and  _182
REMARK   81  A    between atoms: _187  and  _188
REMARK   82  A    between atoms: _190  and  _192
REMARK   83  A    between atoms: _192  and  _193
REMARK   84  A    between atoms: _192  and  _195
REMARK   85  A    between atoms: _195  and  _196
REMARK   86  A    between atoms: _196  and  _197
REMARK   87  A    between atoms: _199  and  _201
REMARK   88  A    between atoms: _201  and  _202
REMARK   89  A    between atoms: _201  and  _204
REMARK   90  A    between atoms: _207  and  _209
REMARK   91  A    between atoms: _209  and  _210
REMARK   92  A    between atoms: _209  and  _212
REMARK   93  A    between atoms: _212  and  _213
REMARK   94  A    between atoms: _218  and  _220
REMARK   95  A    between atoms: _220  and  _221
REMARK   96  A    between atoms: _220  and  _223
REMARK   97  A    between atoms: _223  and  _224
REMARK   98  A    between atoms: _224  and  _225
REMARK   99  A    between atoms: _225  and  _226
REMARK  100  A    between atoms: _226  and  _227
REMARK  101  A    between atoms: _231  and  _233
REMARK  102  A    between atoms: _233  and  _234
REMARK  103  A    between atoms: _233  and  _236
REMARK  104  A    between atoms: _236  and  _237
REMARK  105  A    between atoms: _240  and  _242
REMARK  106  A    between atoms: _242  and  _243
REMARK  107  A    between atoms: _245  and  _247
REMARK  108  A    between atoms: _247  and  _248
REMARK  109  A    between atoms: _250  and  _252
REMARK  110  A    between atoms: _252  and  _253
REMARK  111  A    between atoms: _252  and  _255
REMARK  112  A    between atoms: _255  and  _256
REMARK  113  A    between atoms: _259  and  _261
REMARK  114  A    between atoms: _261  and  _262
REMARK  115  A    between atoms: _261  and  _264
REMARK  116  A    between atoms: _264  and  _265
REMARK  117  A    between atoms: _271  and  _273
REMARK  118  A    between atoms: _273  and  _274
REMARK  119  A    between atoms: _276  and  _278
REMARK  120  A    between atoms: _278  and  _279
REMARK  121  A    between atoms: _278  and  _281
REMARK  122  A    between atoms: _281  and  _282
REMARK  123  A    between atoms: _287  and  _288
REMARK  124  A    between atoms: _290  and  _292
REMARK  125  A    between atoms: _292  and  _293
REMARK  126  A    between atoms: _292  and  _295
REMARK  127  A    between atoms: _295  and  _296
REMARK  128  A    between atoms: _296  and  _297
REMARK  129  A    between atoms: _302  and  _304
REMARK  130  A    between atoms: _304  and  _305
REMARK  131  A    between atoms: _304  and  _307
REMARK  132  A    between atoms: _307  and  _308
REMARK  133  A    between atoms: _311  and  _313
REMARK  134  A    between atoms: _313  and  _314
REMARK  135  A    between atoms: _313  and  _316
REMARK  136  A    between atoms: _316  and  _317
REMARK  137  A    between atoms: _320  and  _322
REMARK  138  A    between atoms: _322  and  _323
REMARK  139  A    between atoms: _322  and  _325
REMARK  140  A    between atoms: _325  and  _326
REMARK  141  A    between atoms: _331  and  _333
REMARK  142  A    between atoms: _333  and  _334
REMARK  143  A    between atoms: _333  and  _336
REMARK  144  A    between atoms: _336  and  _337
REMARK  145  A    between atoms: _340  and  _342
REMARK  146  A    between atoms: _342  and  _343
REMARK  147  A    between atoms: _342  and  _345
REMARK  148  A    between atoms: _345  and  _346
REMARK  149  A    between atoms: _346  and  _347
REMARK  150  A    between atoms: _350  and  _352
REMARK  151  A    between atoms: _352  and  _353
REMARK  152  A    between atoms: _352  and  _355
REMARK  153  A    between atoms: _355  and  _356
REMARK  154  A    between atoms: _356  and  _357
REMARK  155  A    between atoms: _357  and  _358
REMARK  156  A    between atoms: _358  and  _359
REMARK  157  A    between atoms: _363  and  _365
REMARK  158  A    between atoms: _365  and  _366
REMARK  159  A    between atoms: _365  and  _368
REMARK  160  A    between atoms: _368  and  _369
REMARK                            x       y       z     vdW  Elec       q    Type
REMARK                         _______ _______ _______ _____ _____    ______ ____
ROOT
ATOM      1  CA  LEU A   1      25.828  49.763  16.603  0.00  0.00    +0.133 C 
ENDROOT
BRANCH   1   2
ATOM      2  N   LEU A   1      25.541  50.728  17.638  0.00  0.00    -0.239 NA
ATOM      3  H   LEU A   1      26.241  50.923  18.382  0.00  0.00    +0.142 HD
ENDBRANCH   1   2
BRANCH   1   4
ATOM      4  C   LEU A   1      24.724  48.691  16.613  0.00  0.00    +0.224 C 
ATOM      5  O   LEU A   1      24.122  48.411  15.597  0.00  0.00    -0.287 OA
ENDBRANCH   1   4
BRANCH   1   6
ATOM      6  CB  LEU A   1      27.167  49.079  16.869  0.00  0.00    +0.025 C 
BRANCH   6   7
ATOM      7  CG  LEU A   1      27.420  47.818  16.027  0.00  0.00    +0.002 C 
ATOM      8  CD2 LEU A   1      28.772  47.176  16.422  0.00  0.00    +0.000 C 
ATOM      9  CD1 LEU A   1      27.424  48.205  14.495  0.00  0.00    +0.000 C 
ENDBRANCH   6   7
ENDBRANCH   1   6
TORSDOF 4
REMARK  Name = ../refined-set-2016/2e91/2e91_pocket.pdb
REMARK  160 active torsions:
REMARK  status: ('A' for Active; 'I' for Inactive)
REMARK    1  A    between atoms: _1  and  _3
REMARK    2  A    between atoms: _3  and  _4
REMARK    3  A    between atoms: _3  and  _6
REMARK    4  A    between atoms: _6  and  _7
REMARK    5  A    between atoms: _12  and  _14
REMARK    6  A    between atoms: _14  and  _15
REMARK    7  A    between atoms: _14  and  _17
REMARK    8  A    between atoms: _17  and  _18
REMARK    9  A    between atoms: _20  and  _22
REMARK   10  A    between atoms: _22  and  _23
REMARK   11  A    between atoms: _22  and  _25
REMARK   12  A    between atoms: _25  and  _26
REMARK   13  A    between atoms: _29  and  _31
REMARK   14  A    between atoms: _31  and  _32
REMARK   15  A    between atoms: _31  and  _34
REMARK   16  A    between atoms: _34  and  _35
REMARK   17  A    between atoms: _38  and  _40
REMARK   18  A    between atoms: _40  and  _41
REMARK   19  A    between atoms: _40  and  _43
REMARK   20  A    between atoms: _43  and  _44
REMARK   21  A    between atoms: _44  and  _45
REMARK   22  A    between atoms: _44  and  _46
REMARK   23  A    between atoms: _45  and  MG_371
REMARK   24  A    between atoms: _46  and  MG_372
REMARK   25  A    between atoms: _47  and  _49
REMARK   26  A    between atoms: _49  and  _50
REMARK   27  A    between atoms: _49  and  _52
REMARK   28  A    between atoms: _52  and  _53
REMARK   29  A    between atoms: _56  and  _58
REMARK   30  A    between atoms: _58  and  _59
REMARK   31  A    between atoms: _58  and  _61
REMARK   32  A    between atoms: _61  and  _62
REMARK   33  A    between atoms: _62  and  _63
REMARK   34  A    between atoms: _66  and  _68
REMARK   35  A    between atoms: _68  and  _69
REMARK   36  A    between atoms: _68  and  _71
REMARK   37  A    between atoms: _71  and  _72
REMARK   38  A    between atoms: _75  and  _77
REMARK   39  A    between atoms: _77  and  _78
REMARK   40  A    between atoms: _81  and  _83
REMARK   41  A    between atoms: _83  and  _84
REMARK   42  A    between atoms: _83  and  _86
REMARK   43  A    between atoms: _86  and  _87
REMARK   44  A    between atoms: _90  and  _92
REMARK   45  A    between atoms: _92  and  _93
REMARK   46  A    between atoms: _92  and  _95
REMARK   47  A    between atoms: _95  and  _96
REMARK   48  A    between atoms: _96  and  _97
REMARK   49  A    between atoms: _97  and  _98
REMARK   50  A    between atoms: _107  and  _109
REMARK   51  A    between atoms: _109  and  _110
REMARK   52  A    between atoms: _109  and  _112
REMARK   53  A    between atoms: _112  and  _113
REMARK   54  A    between atoms: _113  and  _114
REMARK   55  A    between atoms: _114  and  _115
REMARK   56  A    between atoms: _124  and  _126
REMARK   57  A    between atoms: _126  and  _127
REMARK   58  A    between atoms: _126  and  _129
REMARK   59  A    between atoms: _129  and  _130
REMARK   60  A    between atoms: _133  and  _135
REMARK   61  A    between atoms: _135  and  _136
REMARK   62  A    between atoms: _138  and  _140
REMARK   63  A    between atoms: _140  and  _141
REMARK   64  A    between atoms: _140  and  _143
REMARK   65  A    between atoms: _143  and  _144
REMARK   66  A    between atoms: _144  and  _145
REMARK   67  A    between atoms: _150  and  _152
REMARK   68  A    between atoms: _152  and  _153
REMARK   69  A    between atoms: _152  and  _155
REMARK   70  A    between atoms: _155  and  _156
REMARK   71  A    between atoms: _159  and  _161
REMARK   72  A    between atoms: _161  and  _162
REMARK   73  A    between atoms: _161  and  _164
REMARK   74  A    between atoms: _164  and  _165
REMARK   75  A    between atoms: _165  and  _166
REMARK   76  A    between atoms: _166  and  _167
REMARK   77  A    between atoms: _176  and  _178
REMARK   78  A    between atoms: _178  and  _179
REMARK   79  A    between atoms: _178  and  _181
REMARK   80  A    between atoms: _181  and  _182
REMARK   81  A    between atoms: _187  and  _188
REMARK   82  A    between atoms: _190  and  _192
REMARK   83  A    between atoms: _192  and  _193
REMARK   84  A    between atoms: _192  and  _195
REMARK   85  A    between atoms: _195  and  _196
REMARK   86  A    between atoms: _196  and  _197
REMARK   87  A    between atoms: _199  and  _201
REMARK   88  A    between atoms: _201  and  _202
REMARK   89  A    between atoms: _201  and  _204
REMARK   90  A    between atoms: _207  and  _209
REMARK   91  A    between atoms: _209  and  _210
REMARK   92  A    between atoms: _209  and  _212
REMARK   93  A    between atoms: _212  and  _213
REMARK   94  A    between atoms: _218  and  _220
REMARK   95  A    between atoms: _220  and  _221
REMARK   96  A    between atoms: _220  and  _223
REMARK   97  A    between atoms: _223  and  _224
REMARK   98  A    between atoms: _224  and  _225
REMARK   99  A    between atoms: _225  and  _226
REMARK  100  A    between atoms: _226  and  _227
REMARK  101  A    between atoms: _231  and  _233
REMARK  102  A    between atoms: _233  and  _234
REMARK  103  A    between atoms: _233  and  _236
REMARK  104  A    between atoms: _236  and  _237
REMARK  105  A    between atoms: _240  and  _242
REMARK  106  A    between atoms: _242  and  _243
REMARK  107  A    between atoms: _245  and  _247
REMARK  108  A    between atoms: _247  and  _248
REMARK  109  A    between atoms: _250  and  _252
REMARK  110  A    between atoms: _252  and  _253
REMARK  111  A    between atoms: _252  and  _255
REMARK  112  A    between atoms: _255  and  _256
REMARK  113  A    between atoms: _259  and  _261
REMARK  114  A    between atoms: _261  and  _262
REMARK  115  A    between atoms: _261  and  _264
REMARK  116  A    between atoms: _264  and  _265
REMARK  117  A    between atoms: _271  and  _273
REMARK  118  A    between atoms: _273  and  _274
REMARK  119  A    between atoms: _276  and  _278
REMARK  120  A    between atoms: _278  and  _279
REMARK  121  A    between atoms: _278  and  _281
REMARK  122  A    between atoms: _281  and  _282
REMARK  123  A    between atoms: _287  and  _288
REMARK  124  A    between atoms: _290  and  _292
REMARK  125  A    between atoms: _292  and  _293
REMARK  126  A    between atoms: _292  and  _295
REMARK  127  A    between atoms: _295  and  _296
REMARK  128  A    between atoms: _296  and  _297
REMARK  129  A    between atoms: _302  and  _304
REMARK  130  A    between atoms: _304  and  _305
REMARK  131  A    between atoms: _304  and  _307
REMARK  132  A    between atoms: _307  and  _308
REMARK  133  A    between atoms: _311  and  _313
REMARK  134  A    between atoms: _313  and  _314
REMARK  135  A    between atoms: _313  and  _316
REMARK  136  A    between atoms: _316  and  _317
REMARK  137  A    between atoms: _320  and  _322
REMARK  138  A    between atoms: _322  and  _323
REMARK  139  A    between atoms: _322  and  _325
REMARK  140  A    between atoms: _325  and  _326
REMARK  141  A    between atoms: _331  and  _333
REMARK  142  A    between atoms: _333  and  _334
REMARK  143  A    between atoms: _333  and  _336
REMARK  144  A    between atoms: _336  and  _337
REMARK  145  A    between atoms: _340  and  _342
REMARK  146  A    between atoms: _342  and  _343
REMARK  147  A    between atoms: _342  and  _345
REMARK  148  A    between atoms: _345  and  _346
REMARK  149  A    between atoms: _346  and  _347
REMARK  150  A    between atoms: _350  and  _352
REMARK  151  A    between atoms: _352  and  _353
REMARK  152  A    between atoms: _352  and  _355
REMARK  153  A    between atoms: _355  and  _356
REMARK  154  A    between atoms: _356  and  _357
REMARK  155  A    between atoms: _357  and  _358
REMARK  156  A    between atoms: _358  and  _359
REMARK  157  A    between atoms: _363  and  _365
REMARK  158  A    between atoms: _365  and  _366
REMARK  159  A    between atoms: _365  and  _368
REMARK  160  A    between atoms: _368  and  _369
REMARK                            x       y       z     vdW  Elec       q    Type
REMARK                         _______ _______ _______ _____ _____    ______ ____
ROOT
ATOM      1  CA  GLN A   2      22.116  46.300  13.010  0.00  0.00    +0.137 C 
ENDROOT
BRANCH   1   3
ATOM      2  C   GLY A   1      21.145  48.567  13.137  0.00  0.00    +0.240 C 
ATOM      3  N   GLN A   2      22.083  47.675  13.527  0.00  0.00    -0.298 N 
ATOM      4  H   GLN A   2      22.804  47.972  14.215  0.00  0.00    +0.150 HD
ATOM      5  O   GLY A   1      20.259  48.320  12.282  0.00  0.00    -0.274 OA
BRANCH   2   6
ATOM      6  CA  GLY A   1      21.186  49.945  13.781  0.00  0.00    +0.169 C 
BRANCH   6   7
ATOM      7  N   GLY A   1      21.196  49.859  15.223  0.00  0.00    -0.236 NA
ATOM      8  H   GLY A   1      22.011  50.229  15.752  0.00  0.00    +0.142 HD
ENDBRANCH   6   7
ENDBRANCH   2   6
ENDBRANCH   1   3
BRANCH   1   9
ATOM      9  C   GLN A   2      20.742  45.651  13.278  0.00  0.00    +0.227 C 
ATOM     10  O   GLN A   2      20.180  44.978  12.435  0.00  0.00    -0.286 OA
ENDBRANCH   1   9
BRANCH   1  11
ATOM     11  CB  GLN A   2      23.147  45.457  13.740  0.00  0.00    +0.037 C 
BRANCH  11  12
ATOM     12  CG  GLN A   2      24.630  45.723  13.406  0.00  0.00    +0.087 C 
BRANCH  12  13
ATOM     13  CD  GLN A   2      24.950  45.381  11.963  0.00  0.00    +0.219 C 
ATOM     14  NE2 GLN A   2      25.431  44.173  11.720  0.00  0.00    -0.329 N 
ATOM     15 HE21 GLN A   2      25.599  43.513  12.506  0.00  0.00    +0.145 HD
ATOM     16 HE22 GLN A   2      25.641  43.884  10.743  0.00  0.00    +0.145 HD
ATOM     17  OE1 GLN A   2      24.733  46.198  11.075  0.00  0.00    -0.275 OA
ENDBRANCH  12  13
ENDBRANCH  11  12
ENDBRANCH   1  11
TORSDOF 7
REMARK  Name = ../refined-set-2016/2e91/2e91_pocket.pdb
REMARK  160 active torsions:
REMARK  status: ('A' for Active; 'I' for Inactive)
REMARK    1  A    between atoms: _1  and  _3
REMARK    2  A    between atoms: _3  and  _4
REMARK    3  A    between atoms: _3  and  _6
REMARK    4  A    between atoms: _6  and  _7
REMARK    5  A    between atoms: _12  and  _14
REMARK    6  A    between atoms: _14  and  _15
REMARK    7  A    between atoms: _14  and  _17
REMARK    8  A    between atoms: _17  and  _18
REMARK    9  A    between atoms: _20  and  _22
REMARK   10  A    between atoms: _22  and  _23
REMARK   11  A    between atoms: _22  and  _25
REMARK   12  A    between atoms: _25  and  _26
REMARK   13  A    between atoms: _29  and  _31
REMARK   14  A    between atoms: _31  and  _32
REMARK   15  A    between atoms: _31  and  _34
REMARK   16  A    between atoms: _34  and  _35
REMARK   17  A    between atoms: _38  and  _40
REMARK   18  A    between atoms: _40  and  _41
REMARK   19  A    between atoms: _40  and  _43
REMARK   20  A    between atoms: _43  and  _44
REMARK   21  A    between atoms: _44  and  _45
REMARK   22  A    between atoms: _44  and  _46
REMARK   23  A    between atoms: _45  and  MG_371
REMARK   24  A    between atoms: _46  and  MG_372
REMARK   25  A    between atoms: _47  and  _49
REMARK   26  A    between atoms: _49  and  _50
REMARK   27  A    between atoms: _49  and  _52
REMARK   28  A    between atoms: _52  and  _53
REMARK   29  A    between atoms: _56  and  _58
REMARK   30  A    between atoms: _58  and  _59
REMARK   31  A    between atoms: _58  and  _61
REMARK   32  A    between atoms: _61  and  _62
REMARK   33  A    between atoms: _62  and  _63
REMARK   34  A    between atoms: _66  and  _68
REMARK   35  A    between atoms: _68  and  _69
REMARK   36  A    between atoms: _68  and  _71
REMARK   37  A    between atoms: _71  and  _72
REMARK   38  A    between atoms: _75  and  _77
REMARK   39  A    between atoms: _77  and  _78
REMARK   40  A    between atoms: _81  and  _83
REMARK   41  A    between atoms: _83  and  _84
REMARK   42  A    between atoms: _83  and  _86
REMARK   43  A    between atoms: _86  and  _87
REMARK   44  A    between atoms: _90  and  _92
REMARK   45  A    between atoms: _92  and  _93
REMARK   46  A    between atoms: _92  and  _95
REMARK   47  A    between atoms: _95  and  _96
REMARK   48  A    between atoms: _96  and  _97
REMARK   49  A    between atoms: _97  and  _98
REMARK   50  A    between atoms: _107  and  _109
REMARK   51  A    between atoms: _109  and  _110
REMARK   52  A    between atoms: _109  and  _112
REMARK   53  A    between atoms: _112  and  _113
REMARK   54  A    between atoms: _113  and  _114
REMARK   55  A    between atoms: _114  and  _115
REMARK   56  A    between atoms: _124  and  _126
REMARK   57  A    between atoms: _126  and  _127
REMARK   58  A    between atoms: _126  and  _129
REMARK   59  A    between atoms: _129  and  _130
REMARK   60  A    between atoms: _133  and  _135
REMARK   61  A    between atoms: _135  and  _136
REMARK   62  A    between atoms: _138  and  _140
REMARK   63  A    between atoms: _140  and  _141
REMARK   64  A    between atoms: _140  and  _143
REMARK   65  A    between atoms: _143  and  _144
REMARK   66  A    between atoms: _144  and  _145
REMARK   67  A    between atoms: _150  and  _152
REMARK   68  A    between atoms: _152  and  _153
REMARK   69  A    between atoms: _152  and  _155
REMARK   70  A    between atoms: _155  and  _156
REMARK   71  A    between atoms: _159  and  _161
REMARK   72  A    between atoms: _161  and  _162
REMARK   73  A    between atoms: _161  and  _164
REMARK   74  A    between atoms: _164  and  _165
REMARK   75  A    between atoms: _165  and  _166
REMARK   76  A    between atoms: _166  and  _167
REMARK   77  A    between atoms: _176  and  _178
REMARK   78  A    between atoms: _178  and  _179
REMARK   79  A    between atoms: _178  and  _181
REMARK   80  A    between atoms: _181  and  _182
REMARK   81  A    between atoms: _187  and  _188
REMARK   82  A    between atoms: _190  and  _192
REMARK   83  A    between atoms: _192  and  _193
REMARK   84  A    between atoms: _192  and  _195
REMARK   85  A    between atoms: _195  and  _196
REMARK   86  A    between atoms: _196  and  _197
REMARK   87  A    between atoms: _199  and  _201
REMARK   88  A    between atoms: _201  and  _202
REMARK   89  A    between atoms: _201  and  _204
REMARK   90  A    between atoms: _207  and  _209
REMARK   91  A    between atoms: _209  and  _210
REMARK   92  A    between atoms: _209  and  _212
REMARK   93  A    between atoms: _212  and  _213
REMARK   94  A    between atoms: _218  and  _220
REMARK   95  A    between atoms: _220  and  _221
REMARK   96  A    between atoms: _220  and  _223
REMARK   97  A    between atoms: _223  and  _224
REMARK   98  A    between atoms: _224  and  _225
REMARK   99  A    between atoms: _225  and  _226
REMARK  100  A    between atoms: _226  and  _227
REMARK  101  A    between atoms: _231  and  _233
REMARK  102  A    between atoms: _233  and  _234
REMARK  103  A    between atoms: _233  and  _236
REMARK  104  A    between atoms: _236  and  _237
REMARK  105  A    between atoms: _240  and  _242
REMARK  106  A    between atoms: _242  and  _243
REMARK  107  A    between atoms: _245  and  _247
REMARK  108  A    between atoms: _247  and  _248
REMARK  109  A    between atoms: _250  and  _252
REMARK  110  A    between atoms: _252  and  _253
REMARK  111  A    between atoms: _252  and  _255
REMARK  112  A    between atoms: _255  and  _256
REMARK  113  A    between atoms: _259  and  _261
REMARK  114  A    between atoms: _261  and  _262
REMARK  115  A    between atoms: _261  and  _264
REMARK  116  A    between atoms: _264  and  _265
REMARK  117  A    between atoms: _271  and  _273
REMARK  118  A    between atoms: _273  and  _274
REMARK  119  A    between atoms: _276  and  _278
REMARK  120  A    between atoms: _278  and  _279
REMARK  121  A    between atoms: _278  and  _281
REMARK  122  A    between atoms: _281  and  _282
REMARK  123  A    between atoms: _287  and  _288
REMARK  124  A    between atoms: _290  and  _292
REMARK  125  A    between atoms: _292  and  _293
REMARK  126  A    between atoms: _292  and  _295
REMARK  127  A    between atoms: _295  and  _296
REMARK  128  A    between atoms: _296  and  _297
REMARK  129  A    between atoms: _302  and  _304
REMARK  130  A    between atoms: _304  and  _305
REMARK  131  A    between atoms: _304  and  _307
REMARK  132  A    between atoms: _307  and  _308
REMARK  133  A    between atoms: _311  and  _313
REMARK  134  A    between atoms: _313  and  _314
REMARK  135  A    between atoms: _313  and  _316
REMARK  136  A    between atoms: _316  and  _317
REMARK  137  A    between atoms: _320  and  _322
REMARK  138  A    between atoms: _322  and  _323
REMARK  139  A    between atoms: _322  and  _325
REMARK  140  A    between atoms: _325  and  _326
REMARK  141  A    between atoms: _331  and  _333
REMARK  142  A    between atoms: _333  and  _334
REMARK  143  A    between atoms: _333  and  _336
REMARK  144  A    between atoms: _336  and  _337
REMARK  145  A    between atoms: _340  and  _342
REMARK  146  A    between atoms: _342  and  _343
REMARK  147  A    between atoms: _342  and  _345
REMARK  148  A    between atoms: _345  and  _346
REMARK  149  A    between atoms: _346  and  _347
REMARK  150  A    between atoms: _350  and  _352
REMARK  151  A    between atoms: _352  and  _353
REMARK  152  A    between atoms: _352  and  _355
REMARK  153  A    between atoms: _355  and  _356
REMARK  154  A    between atoms: _356  and  _357
REMARK  155  A    between atoms: _357  and  _358
REMARK  156  A    between atoms: _358  and  _359
REMARK  157  A    between atoms: _363  and  _365
REMARK  158  A    between atoms: _365  and  _366
REMARK  159  A    between atoms: _365  and  _368
REMARK  160  A    between atoms: _368  and  _369
REMARK                            x       y       z     vdW  Elec       q    Type
REMARK                         _______ _______ _______ _____ _____    ______ ____
ROOT
ATOM      1  CA  ASP A   1      18.674  46.351   9.248  0.00  0.00    +0.144 C 
ENDROOT
BRANCH   1   2
ATOM      2  N   ASP A   1      18.299  46.836  10.589  0.00  0.00    -0.239 NA
ATOM      3  H   ASP A   1      19.017  47.264  11.208  0.00  0.00    +0.142 HD
ENDBRANCH   1   2
BRANCH   1   4
ATOM      4  C   ASP A   1      18.303  44.887   9.181  0.00  0.00    +0.225 C 
ATOM      5  O   ASP A   1      17.698  44.412   8.234  0.00  0.00    -0.287 OA
ENDBRANCH   1   4
BRANCH   1   6
ATOM      6  CB  ASP A   1      20.187  46.505   9.006  0.00  0.00    +0.139 C 
BRANCH   6   7
ATOM      7  CG  ASP A   1      20.536  46.624   7.537  0.00  0.00    +0.367 C 
ATOM      8  OD2 ASP A   1      21.587  46.108   7.150  0.00  0.00    -0.246 OA
ATOM      9  OD1 ASP A   1      19.784  47.247   6.760  0.00  0.00    -0.246 OA
ENDBRANCH   6   7
ENDBRANCH   1   6
TORSDOF 4
REMARK  Name = ../refined-set-2016/2e91/2e91_pocket.pdb
REMARK  160 active torsions:
REMARK  status: ('A' for Active; 'I' for Inactive)
REMARK    1  A    between atoms: _1  and  _3
REMARK    2  A    between atoms: _3  and  _4
REMARK    3  A    between atoms: _3  and  _6
REMARK    4  A    between atoms: _6  and  _7
REMARK    5  A    between atoms: _12  and  _14
REMARK    6  A    between atoms: _14  and  _15
REMARK    7  A    between atoms: _14  and  _17
REMARK    8  A    between atoms: _17  and  _18
REMARK    9  A    between atoms: _20  and  _22
REMARK   10  A    between atoms: _22  and  _23
REMARK   11  A    between atoms: _22  and  _25
REMARK   12  A    between atoms: _25  and  _26
REMARK   13  A    between atoms: _29  and  _31
REMARK   14  A    between atoms: _31  and  _32
REMARK   15  A    between atoms: _31  and  _34
REMARK   16  A    between atoms: _34  and  _35
REMARK   17  A    between atoms: _38  and  _40
REMARK   18  A    between atoms: _40  and  _41
REMARK   19  A    between atoms: _40  and  _43
REMARK   20  A    between atoms: _43  and  _44
REMARK   21  A    between atoms: _44  and  _45
REMARK   22  A    between atoms: _44  and  _46
REMARK   23  A    between atoms: _45  and  MG_371
REMARK   24  A    between atoms: _46  and  MG_372
REMARK   25  A    between atoms: _47  and  _49
REMARK   26  A    between atoms: _49  and  _50
REMARK   27  A    between atoms: _49  and  _52
REMARK   28  A    between atoms: _52  and  _53
REMARK   29  A    between atoms: _56  and  _58
REMARK   30  A    between atoms: _58  and  _59
REMARK   31  A    between atoms: _58  and  _61
REMARK   32  A    between atoms: _61  and  _62
REMARK   33  A    between atoms: _62  and  _63
REMARK   34  A    between atoms: _66  and  _68
REMARK   35  A    between atoms: _68  and  _69
REMARK   36  A    between atoms: _68  and  _71
REMARK   37  A    between atoms: _71  and  _72
REMARK   38  A    between atoms: _75  and  _77
REMARK   39  A    between atoms: _77  and  _78
REMARK   40  A    between atoms: _81  and  _83
REMARK   41  A    between atoms: _83  and  _84
REMARK   42  A    between atoms: _83  and  _86
REMARK   43  A    between atoms: _86  and  _87
REMARK   44  A    between atoms: _90  and  _92
REMARK   45  A    between atoms: _92  and  _93
REMARK   46  A    between atoms: _92  and  _95
REMARK   47  A    between atoms: _95  and  _96
REMARK   48  A    between atoms: _96  and  _97
REMARK   49  A    between atoms: _97  and  _98
REMARK   50  A    between atoms: _107  and  _109
REMARK   51  A    between atoms: _109  and  _110
REMARK   52  A    between atoms: _109  and  _112
REMARK   53  A    between atoms: _112  and  _113
REMARK   54  A    between atoms: _113  and  _114
REMARK   55  A    between atoms: _114  and  _115
REMARK   56  A    between atoms: _124  and  _126
REMARK   57  A    between atoms: _126  and  _127
REMARK   58  A    between atoms: _126  and  _129
REMARK   59  A    between atoms: _129  and  _130
REMARK   60  A    between atoms: _133  and  _135
REMARK   61  A    between atoms: _135  and  _136
REMARK   62  A    between atoms: _138  and  _140
REMARK   63  A    between atoms: _140  and  _141
REMARK   64  A    between atoms: _140  and  _143
REMARK   65  A    between atoms: _143  and  _144
REMARK   66  A    between atoms: _144  and  _145
REMARK   67  A    between atoms: _150  and  _152
REMARK   68  A    between atoms: _152  and  _153
REMARK   69  A    between atoms: _152  and  _155
REMARK   70  A    between atoms: _155  and  _156
REMARK   71  A    between atoms: _159  and  _161
REMARK   72  A    between atoms: _161  and  _162
REMARK   73  A    between atoms: _161  and  _164
REMARK   74  A    between atoms: _164  and  _165
REMARK   75  A    between atoms: _165  and  _166
REMARK   76  A    between atoms: _166  and  _167
REMARK   77  A    between atoms: _176  and  _178
REMARK   78  A    between atoms: _178  and  _179
REMARK   79  A    between atoms: _178  and  _181
REMARK   80  A    between atoms: _181  and  _182
REMARK   81  A    between atoms: _187  and  _188
REMARK   82  A    between atoms: _190  and  _192
REMARK   83  A    between atoms: _192  and  _193
REMARK   84  A    between atoms: _192  and  _195
REMARK   85  A    between atoms: _195  and  _196
REMARK   86  A    between atoms: _196  and  _197
REMARK   87  A    between atoms: _199  and  _201
REMARK   88  A    between atoms: _201  and  _202
REMARK   89  A    between atoms: _201  and  _204
REMARK   90  A    between atoms: _207  and  _209
REMARK   91  A    between atoms: _209  and  _210
REMARK   92  A    between atoms: _209  and  _212
REMARK   93  A    between atoms: _212  and  _213
REMARK   94  A    between atoms: _218  and  _220
REMARK   95  A    between atoms: _220  and  _221
REMARK   96  A    between atoms: _220  and  _223
REMARK   97  A    between atoms: _223  and  _224
REMARK   98  A    between atoms: _224  and  _225
REMARK   99  A    between atoms: _225  and  _226
REMARK  100  A    between atoms: _226  and  _227
REMARK  101  A    between atoms: _231  and  _233
REMARK  102  A    between atoms: _233  and  _234
REMARK  103  A    between atoms: _233  and  _236
REMARK  104  A    between atoms: _236  and  _237
REMARK  105  A    between atoms: _240  and  _242
REMARK  106  A    between atoms: _242  and  _243
REMARK  107  A    between atoms: _245  and  _247
REMARK  108  A    between atoms: _247  and  _248
REMARK  109  A    between atoms: _250  and  _252
REMARK  110  A    between atoms: _252  and  _253
REMARK  111  A    between atoms: _252  and  _255
REMARK  112  A    between atoms: _255  and  _256
REMARK  113  A    between atoms: _259  and  _261
REMARK  114  A    between atoms: _261  and  _262
REMARK  115  A    between atoms: _261  and  _264
REMARK  116  A    between atoms: _264  and  _265
REMARK  117  A    between atoms: _271  and  _273
REMARK  118  A    between atoms: _273  and  _274
REMARK  119  A    between atoms: _276  and  _278
REMARK  120  A    between atoms: _278  and  _279
REMARK  121  A    between atoms: _278  and  _281
REMARK  122  A    between atoms: _281  and  _282
REMARK  123  A    between atoms: _287  and  _288
REMARK  124  A    between atoms: _290  and  _292
REMARK  125  A    between atoms: _292  and  _293
REMARK  126  A    between atoms: _292  and  _295
REMARK  127  A    between atoms: _295  and  _296
REMARK  128  A    between atoms: _296  and  _297
REMARK  129  A    between atoms: _302  and  _304
REMARK  130  A    between atoms: _304  and  _305
REMARK  131  A    between atoms: _304  and  _307
REMARK  132  A    between atoms: _307  and  _308
REMARK  133  A    between atoms: _311  and  _313
REMARK  134  A    between atoms: _313  and  _314
REMARK  135  A    between atoms: _313  and  _316
REMARK  136  A    between atoms: _316  and  _317
REMARK  137  A    between atoms: _320  and  _322
REMARK  138  A    between atoms: _322  and  _323
REMARK  139  A    between atoms: _322  and  _325
REMARK  140  A    between atoms: _325  and  _326
REMARK  141  A    between atoms: _331  and  _333
REMARK  142  A    between atoms: _333  and  _334
REMARK  143  A    between atoms: _333  and  _336
REMARK  144  A    between atoms: _336  and  _337
REMARK  145  A    between atoms: _340  and  _342
REMARK  146  A    between atoms: _342  and  _343
REMARK  147  A    between atoms: _342  and  _345
REMARK  148  A    between atoms: _345  and  _346
REMARK  149  A    between atoms: _346  and  _347
REMARK  150  A    between atoms: _350  and  _352
REMARK  151  A    between atoms: _352  and  _353
REMARK  152  A    between atoms: _352  and  _355
REMARK  153  A    between atoms: _355  and  _356
REMARK  154  A    between atoms: _356  and  _357
REMARK  155  A    between atoms: _357  and  _358
REMARK  156  A    between atoms: _358  and  _359
REMARK  157  A    between atoms: _363  and  _365
REMARK  158  A    between atoms: _365  and  _366
REMARK  159  A    between atoms: _365  and  _368
REMARK  160  A    between atoms: _368  and  _369
REMARK                            x       y       z     vdW  Elec       q    Type
REMARK                         _______ _______ _______ _____ _____    ______ ____
ROOT
ATOM      1  NE  ARG A   1      18.922  39.747   6.640  0.00  0.00    -0.265 N 
ATOM      2  CZ  ARG A   1      20.001  39.563   7.383  0.00  0.00    +0.342 C 
ATOM      3  NH2 ARG A   1      19.924  38.724   8.417  0.00  0.00    -0.292 N 
ATOM      4 HH21 ARG A   1      20.757  38.561   9.018  0.00  0.00    +0.255 HD
ATOM      5 HH22 ARG A   1      19.031  38.233   8.623  0.00  0.00    +0.255 HD
ATOM      6  NH1 ARG A   1      21.144  40.208   7.099  0.00  0.00    -0.292 N 
ATOM      7 HH11 ARG A   1      21.987  40.057   7.689  0.00  0.00    +0.255 HD
ATOM      8 HH12 ARG A   1      21.186  40.859   6.289  0.00  0.00    +0.255 HD
ATOM      9  HE  ARG A   1      18.062  39.223   6.899  0.00  0.00    +0.259 HD
ENDROOT
BRANCH   1  10
ATOM     10  CD  ARG A   1      18.854  40.624   5.496  0.00  0.00    +0.174 C 
BRANCH  10  11
ATOM     11  CG  ARG A   1      17.386  40.907   5.161  0.00  0.00    +0.045 C 
BRANCH  11  12
ATOM     12  CB  ARG A   1      16.903  42.091   5.945  0.00  0.00    +0.029 C 
BRANCH  12  13
ATOM     13  CA  ARG A   1      15.363  42.225   5.989  0.00  0.00    +0.133 C 
BRANCH  13  14
ATOM     14  N   ARG A   1      14.990  43.256   6.953  0.00  0.00    -0.239 NA
ATOM     15  H   ARG A   1      15.729  43.671   7.556  0.00  0.00    +0.142 HD
ENDBRANCH  13  14
BRANCH  13  16
ATOM     16  C   ARG A   1      14.739  40.856   6.245  0.00  0.00    +0.224 C 
ATOM     17  O   ARG A   1      14.175  40.277   5.346  0.00  0.00    -0.287 OA
ENDBRANCH  13  16
ENDBRANCH  12  13
ENDBRANCH  11  12
ENDBRANCH  10  11
ENDBRANCH   1  10
TORSDOF 6
REMARK  Name = ../refined-set-2016/2e91/2e91_pocket.pdb
REMARK  160 active torsions:
REMARK  status: ('A' for Active; 'I' for Inactive)
REMARK    1  A    between atoms: _1  and  _3
REMARK    2  A    between atoms: _3  and  _4
REMARK    3  A    between atoms: _3  and  _6
REMARK    4  A    between atoms: _6  and  _7
REMARK    5  A    between atoms: _12  and  _14
REMARK    6  A    between atoms: _14  and  _15
REMARK    7  A    between atoms: _14  and  _17
REMARK    8  A    between atoms: _17  and  _18
REMARK    9  A    between atoms: _20  and  _22
REMARK   10  A    between atoms: _22  and  _23
REMARK   11  A    between atoms: _22  and  _25
REMARK   12  A    between atoms: _25  and  _26
REMARK   13  A    between atoms: _29  and  _31
REMARK   14  A    between atoms: _31  and  _32
REMARK   15  A    between atoms: _31  and  _34
REMARK   16  A    between atoms: _34  and  _35
REMARK   17  A    between atoms: _38  and  _40
REMARK   18  A    between atoms: _40  and  _41
REMARK   19  A    between atoms: _40  and  _43
REMARK   20  A    between atoms: _43  and  _44
REMARK   21  A    between atoms: _44  and  _45
REMARK   22  A    between atoms: _44  and  _46
REMARK   23  A    between atoms: _45  and  MG_371
REMARK   24  A    between atoms: _46  and  MG_372
REMARK   25  A    between atoms: _47  and  _49
REMARK   26  A    between atoms: _49  and  _50
REMARK   27  A    between atoms: _49  and  _52
REMARK   28  A    between atoms: _52  and  _53
REMARK   29  A    between atoms: _56  and  _58
REMARK   30  A    between atoms: _58  and  _59
REMARK   31  A    between atoms: _58  and  _61
REMARK   32  A    between atoms: _61  and  _62
REMARK   33  A    between atoms: _62  and  _63
REMARK   34  A    between atoms: _66  and  _68
REMARK   35  A    between atoms: _68  and  _69
REMARK   36  A    between atoms: _68  and  _71
REMARK   37  A    between atoms: _71  and  _72
REMARK   38  A    between atoms: _75  and  _77
REMARK   39  A    between atoms: _77  and  _78
REMARK   40  A    between atoms: _81  and  _83
REMARK   41  A    between atoms: _83  and  _84
REMARK   42  A    between atoms: _83  and  _86
REMARK   43  A    between atoms: _86  and  _87
REMARK   44  A    between atoms: _90  and  _92
REMARK   45  A    between atoms: _92  and  _93
REMARK   46  A    between atoms: _92  and  _95
REMARK   47  A    between atoms: _95  and  _96
REMARK   48  A    between atoms: _96  and  _97
REMARK   49  A    between atoms: _97  and  _98
REMARK   50  A    between atoms: _107  and  _109
REMARK   51  A    between atoms: _109  and  _110
REMARK   52  A    between atoms: _109  and  _112
REMARK   53  A    between atoms: _112  and  _113
REMARK   54  A    between atoms: _113  and  _114
REMARK   55  A    between atoms: _114  and  _115
REMARK   56  A    between atoms: _124  and  _126
REMARK   57  A    between atoms: _126  and  _127
REMARK   58  A    between atoms: _126  and  _129
REMARK   59  A    between atoms: _129  and  _130
REMARK   60  A    between atoms: _133  and  _135
REMARK   61  A    between atoms: _135  and  _136
REMARK   62  A    between atoms: _138  and  _140
REMARK   63  A    between atoms: _140  and  _141
REMARK   64  A    between atoms: _140  and  _143
REMARK   65  A    between atoms: _143  and  _144
REMARK   66  A    between atoms: _144  and  _145
REMARK   67  A    between atoms: _150  and  _152
REMARK   68  A    between atoms: _152  and  _153
REMARK   69  A    between atoms: _152  and  _155
REMARK   70  A    between atoms: _155  and  _156
REMARK   71  A    between atoms: _159  and  _161
REMARK   72  A    between atoms: _161  and  _162
REMARK   73  A    between atoms: _161  and  _164
REMARK   74  A    between atoms: _164  and  _165
REMARK   75  A    between atoms: _165  and  _166
REMARK   76  A    between atoms: _166  and  _167
REMARK   77  A    between atoms: _176  and  _178
REMARK   78  A    between atoms: _178  and  _179
REMARK   79  A    between atoms: _178  and  _181
REMARK   80  A    between atoms: _181  and  _182
REMARK   81  A    between atoms: _187  and  _188
REMARK   82  A    between atoms: _190  and  _192
REMARK   83  A    between atoms: _192  and  _193
REMARK   84  A    between atoms: _192  and  _195
REMARK   85  A    between atoms: _195  and  _196
REMARK   86  A    between atoms: _196  and  _197
REMARK   87  A    between atoms: _199  and  _201
REMARK   88  A    between atoms: _201  and  _202
REMARK   89  A    between atoms: _201  and  _204
REMARK   90  A    between atoms: _207  and  _209
REMARK   91  A    between atoms: _209  and  _210
REMARK   92  A    between atoms: _209  and  _212
REMARK   93  A    between atoms: _212  and  _213
REMARK   94  A    between atoms: _218  and  _220
REMARK   95  A    between atoms: _220  and  _221
REMARK   96  A    between atoms: _220  and  _223
REMARK   97  A    between atoms: _223  and  _224
REMARK   98  A    between atoms: _224  and  _225
REMARK   99  A    between atoms: _225  and  _226
REMARK  100  A    between atoms: _226  and  _227
REMARK  101  A    between atoms: _231  and  _233
REMARK  102  A    between atoms: _233  and  _234
REMARK  103  A    between atoms: _233  and  _236
REMARK  104  A    between atoms: _236  and  _237
REMARK  105  A    between atoms: _240  and  _242
REMARK  106  A    between atoms: _242  and  _243
REMARK  107  A    between atoms: _245  and  _247
REMARK  108  A    between atoms: _247  and  _248
REMARK  109  A    between atoms: _250  and  _252
REMARK  110  A    between atoms: _252  and  _253
REMARK  111  A    between atoms: _252  and  _255
REMARK  112  A    between atoms: _255  and  _256
REMARK  113  A    between atoms: _259  and  _261
REMARK  114  A    between atoms: _261  and  _262
REMARK  115  A    between atoms: _261  and  _264
REMARK  116  A    between atoms: _264  and  _265
REMARK  117  A    between atoms: _271  and  _273
REMARK  118  A    between atoms: _273  and  _274
REMARK  119  A    between atoms: _276  and  _278
REMARK  120  A    between atoms: _278  and  _279
REMARK  121  A    between atoms: _278  and  _281
REMARK  122  A    between atoms: _281  and  _282
REMARK  123  A    between atoms: _287  and  _288
REMARK  124  A    between atoms: _290  and  _292
REMARK  125  A    between atoms: _292  and  _293
REMARK  126  A    between atoms: _292  and  _295
REMARK  127  A    between atoms: _295  and  _296
REMARK  128  A    between atoms: _296  and  _297
REMARK  129  A    between atoms: _302  and  _304
REMARK  130  A    between atoms: _304  and  _305
REMARK  131  A    between atoms: _304  and  _307
REMARK  132  A    between atoms: _307  and  _308
REMARK  133  A    between atoms: _311  and  _313
REMARK  134  A    between atoms: _313  and  _314
REMARK  135  A    between atoms: _313  and  _316
REMARK  136  A    between atoms: _316  and  _317
REMARK  137  A    between atoms: _320  and  _322
REMARK  138  A    between atoms: _322  and  _323
REMARK  139  A    between atoms: _322  and  _325
REMARK  140  A    between atoms: _325  and  _326
REMARK  141  A    between atoms: _331  and  _333
REMARK  142  A    between atoms: _333  and  _334
REMARK  143  A    between atoms: _333  and  _336
REMARK  144  A    between atoms: _336  and  _337
REMARK  145  A    between atoms: _340  and  _342
REMARK  146  A    between atoms: _342  and  _343
REMARK  147  A    between atoms: _342  and  _345
REMARK  148  A    between atoms: _345  and  _346
REMARK  149  A    between atoms: _346  and  _347
REMARK  150  A    between atoms: _350  and  _352
REMARK  151  A    between atoms: _352  and  _353
REMARK  152  A    between atoms: _352  and  _355
REMARK  153  A    between atoms: _355  and  _356
REMARK  154  A    between atoms: _356  and  _357
REMARK  155  A    between atoms: _357  and  _358
REMARK  156  A    between atoms: _358  and  _359
REMARK  157  A    between atoms: _363  and  _365
REMARK  158  A    between atoms: _365  and  _366
REMARK  159  A    between atoms: _365  and  _368
REMARK  160  A    between atoms: _368  and  _369
REMARK                            x       y       z     vdW  Elec       q    Type
REMARK                         _______ _______ _______ _____ _____    ______ ____
ROOT
ATOM      1  CG  TYR A   1      18.543  53.593   4.408  0.00  0.00    -0.020 A 
ATOM      2  CD2 TYR A   1      19.514  54.591   4.197  0.00  0.00    -0.001 A 
ATOM      3  CE2 TYR A   1      20.841  54.262   3.753  0.00  0.00    +0.036 A 
ATOM      4  CZ  TYR A   1      21.181  52.936   3.528  0.00  0.00    +0.134 A 
ATOM      5  CE1 TYR A   1      20.243  51.919   3.736  0.00  0.00    +0.036 A 
ATOM      6  CD1 TYR A   1      18.909  52.260   4.182  0.00  0.00    -0.001 A 
ENDROOT
BRANCH   4   7
ATOM      7  OH  TYR A   1      22.444  52.606   3.083  0.00  0.00    -0.506 OA
ATOM      8  HH  TYR A   1      22.509  51.624   2.978  0.00  0.00    +0.292 HD
ENDBRANCH   4   7
BRANCH   1   9
ATOM      9  CB  TYR A   1      17.145  53.952   4.868  0.00  0.00    +0.051 C 
BRANCH   9  10
ATOM     10  CA  TYR A   1      17.017  53.987   6.369  0.00  0.00    +0.137 C 
BRANCH  10  11
ATOM     11  N   TYR A   1      15.772  54.621   6.779  0.00  0.00    -0.239 NA
ATOM     12  H   TYR A   1      15.112  54.972   6.056  0.00  0.00    +0.142 HD
ENDBRANCH  10  11
BRANCH  10  13
ATOM     13  C   TYR A   1      18.182  54.805   6.923  0.00  0.00    +0.224 C 
ATOM     14  O   TYR A   1      19.127  54.262   7.477  0.00  0.00    -0.287 OA
ENDBRANCH  10  13
ENDBRANCH   9  10
ENDBRANCH   1   9
TORSDOF 5
REMARK  Name = ../refined-set-2016/2e91/2e91_pocket.pdb
REMARK  160 active torsions:
REMARK  status: ('A' for Active; 'I' for Inactive)
REMARK    1  A    between atoms: _1  and  _3
REMARK    2  A    between atoms: _3  and  _4
REMARK    3  A    between atoms: _3  and  _6
REMARK    4  A    between atoms: _6  and  _7
REMARK    5  A    between atoms: _12  and  _14
REMARK    6  A    between atoms: _14  and  _15
REMARK    7  A    between atoms: _14  and  _17
REMARK    8  A    between atoms: _17  and  _18
REMARK    9  A    between atoms: _20  and  _22
REMARK   10  A    between atoms: _22  and  _23
REMARK   11  A    between atoms: _22  and  _25
REMARK   12  A    between atoms: _25  and  _26
REMARK   13  A    between atoms: _29  and  _31
REMARK   14  A    between atoms: _31  and  _32
REMARK   15  A    between atoms: _31  and  _34
REMARK   16  A    between atoms: _34  and  _35
REMARK   17  A    between atoms: _38  and  _40
REMARK   18  A    between atoms: _40  and  _41
REMARK   19  A    between atoms: _40  and  _43
REMARK   20  A    between atoms: _43  and  _44
REMARK   21  A    between atoms: _44  and  _45
REMARK   22  A    between atoms: _44  and  _46
REMARK   23  A    between atoms: _45  and  MG_371
REMARK   24  A    between atoms: _46  and  MG_372
REMARK   25  A    between atoms: _47  and  _49
REMARK   26  A    between atoms: _49  and  _50
REMARK   27  A    between atoms: _49  and  _52
REMARK   28  A    between atoms: _52  and  _53
REMARK   29  A    between atoms: _56  and  _58
REMARK   30  A    between atoms: _58  and  _59
REMARK   31  A    between atoms: _58  and  _61
REMARK   32  A    between atoms: _61  and  _62
REMARK   33  A    between atoms: _62  and  _63
REMARK   34  A    between atoms: _66  and  _68
REMARK   35  A    between atoms: _68  and  _69
REMARK   36  A    between atoms: _68  and  _71
REMARK   37  A    between atoms: _71  and  _72
REMARK   38  A    between atoms: _75  and  _77
REMARK   39  A    between atoms: _77  and  _78
REMARK   40  A    between atoms: _81  and  _83
REMARK   41  A    between atoms: _83  and  _84
REMARK   42  A    between atoms: _83  and  _86
REMARK   43  A    between atoms: _86  and  _87
REMARK   44  A    between atoms: _90  and  _92
REMARK   45  A    between atoms: _92  and  _93
REMARK   46  A    between atoms: _92  and  _95
REMARK   47  A    between atoms: _95  and  _96
REMARK   48  A    between atoms: _96  and  _97
REMARK   49  A    between atoms: _97  and  _98
REMARK   50  A    between atoms: _107  and  _109
REMARK   51  A    between atoms: _109  and  _110
REMARK   52  A    between atoms: _109  and  _112
REMARK   53  A    between atoms: _112  and  _113
REMARK   54  A    between atoms: _113  and  _114
REMARK   55  A    between atoms: _114  and  _115
REMARK   56  A    between atoms: _124  and  _126
REMARK   57  A    between atoms: _126  and  _127
REMARK   58  A    between atoms: _126  and  _129
REMARK   59  A    between atoms: _129  and  _130
REMARK   60  A    between atoms: _133  and  _135
REMARK   61  A    between atoms: _135  and  _136
REMARK   62  A    between atoms: _138  and  _140
REMARK   63  A    between atoms: _140  and  _141
REMARK   64  A    between atoms: _140  and  _143
REMARK   65  A    between atoms: _143  and  _144
REMARK   66  A    between atoms: _144  and  _145
REMARK   67  A    between atoms: _150  and  _152
REMARK   68  A    between atoms: _152  and  _153
REMARK   69  A    between atoms: _152  and  _155
REMARK   70  A    between atoms: _155  and  _156
REMARK   71  A    between atoms: _159  and  _161
REMARK   72  A    between atoms: _161  and  _162
REMARK   73  A    between atoms: _161  and  _164
REMARK   74  A    between atoms: _164  and  _165
REMARK   75  A    between atoms: _165  and  _166
REMARK   76  A    between atoms: _166  and  _167
REMARK   77  A    between atoms: _176  and  _178
REMARK   78  A    between atoms: _178  and  _179
REMARK   79  A    between atoms: _178  and  _181
REMARK   80  A    between atoms: _181  and  _182
REMARK   81  A    between atoms: _187  and  _188
REMARK   82  A    between atoms: _190  and  _192
REMARK   83  A    between atoms: _192  and  _193
REMARK   84  A    between atoms: _192  and  _195
REMARK   85  A    between atoms: _195  and  _196
REMARK   86  A    between atoms: _196  and  _197
REMARK   87  A    between atoms: _199  and  _201
REMARK   88  A    between atoms: _201  and  _202
REMARK   89  A    between atoms: _201  and  _204
REMARK   90  A    between atoms: _207  and  _209
REMARK   91  A    between atoms: _209  and  _210
REMARK   92  A    between atoms: _209  and  _212
REMARK   93  A    between atoms: _212  and  _213
REMARK   94  A    between atoms: _218  and  _220
REMARK   95  A    between atoms: _220  and  _221
REMARK   96  A    between atoms: _220  and  _223
REMARK   97  A    between atoms: _223  and  _224
REMARK   98  A    between atoms: _224  and  _225
REMARK   99  A    between atoms: _225  and  _226
REMARK  100  A    between atoms: _226  and  _227
REMARK  101  A    between atoms: _231  and  _233
REMARK  102  A    between atoms: _233  and  _234
REMARK  103  A    between atoms: _233  and  _236
REMARK  104  A    between atoms: _236  and  _237
REMARK  105  A    between atoms: _240  and  _242
REMARK  106  A    between atoms: _242  and  _243
REMARK  107  A    between atoms: _245  and  _247
REMARK  108  A    between atoms: _247  and  _248
REMARK  109  A    between atoms: _250  and  _252
REMARK  110  A    between atoms: _252  and  _253
REMARK  111  A    between atoms: _252  and  _255
REMARK  112  A    between atoms: _255  and  _256
REMARK  113  A    between atoms: _259  and  _261
REMARK  114  A    between atoms: _261  and  _262
REMARK  115  A    between atoms: _261  and  _264
REMARK  116  A    between atoms: _264  and  _265
REMARK  117  A    between atoms: _271  and  _273
REMARK  118  A    between atoms: _273  and  _274
REMARK  119  A    between atoms: _276  and  _278
REMARK  120  A    between atoms: _278  and  _279
REMARK  121  A    between atoms: _278  and  _281
REMARK  122  A    between atoms: _281  and  _282
REMARK  123  A    between atoms: _287  and  _288
REMARK  124  A    between atoms: _290  and  _292
REMARK  125  A    between atoms: _292  and  _293
REMARK  126  A    between atoms: _292  and  _295
REMARK  127  A    between atoms: _295  and  _296
REMARK  128  A    between atoms: _296  and  _297
REMARK  129  A    between atoms: _302  and  _304
REMARK  130  A    between atoms: _304  and  _305
REMARK  131  A    between atoms: _304  and  _307
REMARK  132  A    between atoms: _307  and  _308
REMARK  133  A    between atoms: _311  and  _313
REMARK  134  A    between atoms: _313  and  _314
REMARK  135  A    between atoms: _313  and  _316
REMARK  136  A    between atoms: _316  and  _317
REMARK  137  A    between atoms: _320  and  _322
REMARK  138  A    between atoms: _322  and  _323
REMARK  139  A    between atoms: _322  and  _325
REMARK  140  A    between atoms: _325  and  _326
REMARK  141  A    between atoms: _331  and  _333
REMARK  142  A    between atoms: _333  and  _334
REMARK  143  A    between atoms: _333  and  _336
REMARK  144  A    between atoms: _336  and  _337
REMARK  145  A    between atoms: _340  and  _342
REMARK  146  A    between atoms: _342  and  _343
REMARK  147  A    between atoms: _342  and  _345
REMARK  148  A    between atoms: _345  and  _346
REMARK  149  A    between atoms: _346  and  _347
REMARK  150  A    between atoms: _350  and  _352
REMARK  151  A    between atoms: _352  and  _353
REMARK  152  A    between atoms: _352  and  _355
REMARK  153  A    between atoms: _355  and  _356
REMARK  154  A    between atoms: _356  and  _357
REMARK  155  A    between atoms: _357  and  _358
REMARK  156  A    between atoms: _358  and  _359
REMARK  157  A    between atoms: _363  and  _365
REMARK  158  A    between atoms: _365  and  _366
REMARK  159  A    between atoms: _365  and  _368
REMARK  160  A    between atoms: _368  and  _369
REMARK                            x       y       z     vdW  Elec       q    Type
REMARK                         _______ _______ _______ _____ _____    ______ ____
ROOT
ATOM      1  C   MET A   1      20.814  53.155  10.578  0.00  0.00    +0.238 C 
ATOM      2  O   MET A   1      21.613  52.601  11.312  0.00  0.00    -0.274 OA
ATOM      3  N   VAL A   2      21.180  53.844   9.501  0.00  0.00    -0.298 N 
ATOM      4  H   VAL A   2      20.458  54.306   8.912  0.00  0.00    +0.150 HD
ENDROOT
BRANCH   1   5
ATOM      5  CA  MET A   1      19.310  53.096  10.896  0.00  0.00    +0.146 C 
BRANCH   5   6
ATOM      6  N   MET A   1      18.698  54.382  10.599  0.00  0.00    -0.238 NA
ATOM      7  H   MET A   1      18.022  54.464   9.813  0.00  0.00    +0.142 HD
ENDBRANCH   5   6
BRANCH   5   8
ATOM      8  CB  MET A   1      18.623  51.976  10.132  0.00  0.00    +0.038 C 
BRANCH   8   9
ATOM      9  CG  MET A   1      19.299  50.587  10.137  0.00  0.00    +0.060 C 
BRANCH   9  10
ATOM     10  SD  MET A   1      20.713  50.489   8.956  0.00  0.00    -0.139 S 
ATOM     11  CE  MET A   1      19.951  50.606   7.345  0.00  0.00    +0.069 C 
ENDBRANCH   9  10
ENDBRANCH   8   9
ENDBRANCH   5   8
ENDBRANCH   1   5
BRANCH   3  12
ATOM     12  CA  VAL A   2      22.599  53.955   9.141  0.00  0.00    +0.137 C 
BRANCH  12  13
ATOM     13  CB  VAL A   2      22.783  54.548   7.728  0.00  0.00    +0.026 C 
ATOM     14  CG2 VAL A   2      24.257  54.979   7.528  0.00  0.00    +0.002 C 
ATOM     15  CG1 VAL A   2      22.384  53.508   6.714  0.00  0.00    +0.002 C 
ENDBRANCH  12  13
BRANCH  12  16
ATOM     16  C   VAL A   2      23.376  54.807  10.162  0.00  0.00    +0.227 C 
ATOM     17  O   VAL A   2      24.562  54.514  10.462  0.00  0.00    -0.286 OA
ENDBRANCH  12  16
ENDBRANCH   3  12
TORSDOF 8
REMARK  Name = ../refined-set-2016/2e91/2e91_pocket.pdb
REMARK  160 active torsions:
REMARK  status: ('A' for Active; 'I' for Inactive)
REMARK    1  A    between atoms: _1  and  _3
REMARK    2  A    between atoms: _3  and  _4
REMARK    3  A    between atoms: _3  and  _6
REMARK    4  A    between atoms: _6  and  _7
REMARK    5  A    between atoms: _12  and  _14
REMARK    6  A    between atoms: _14  and  _15
REMARK    7  A    between atoms: _14  and  _17
REMARK    8  A    between atoms: _17  and  _18
REMARK    9  A    between atoms: _20  and  _22
REMARK   10  A    between atoms: _22  and  _23
REMARK   11  A    between atoms: _22  and  _25
REMARK   12  A    between atoms: _25  and  _26
REMARK   13  A    between atoms: _29  and  _31
REMARK   14  A    between atoms: _31  and  _32
REMARK   15  A    between atoms: _31  and  _34
REMARK   16  A    between atoms: _34  and  _35
REMARK   17  A    between atoms: _38  and  _40
REMARK   18  A    between atoms: _40  and  _41
REMARK   19  A    between atoms: _40  and  _43
REMARK   20  A    between atoms: _43  and  _44
REMARK   21  A    between atoms: _44  and  _45
REMARK   22  A    between atoms: _44  and  _46
REMARK   23  A    between atoms: _45  and  MG_371
REMARK   24  A    between atoms: _46  and  MG_372
REMARK   25  A    between atoms: _47  and  _49
REMARK   26  A    between atoms: _49  and  _50
REMARK   27  A    between atoms: _49  and  _52
REMARK   28  A    between atoms: _52  and  _53
REMARK   29  A    between atoms: _56  and  _58
REMARK   30  A    between atoms: _58  and  _59
REMARK   31  A    between atoms: _58  and  _61
REMARK   32  A    between atoms: _61  and  _62
REMARK   33  A    between atoms: _62  and  _63
REMARK   34  A    between atoms: _66  and  _68
REMARK   35  A    between atoms: _68  and  _69
REMARK   36  A    between atoms: _68  and  _71
REMARK   37  A    between atoms: _71  and  _72
REMARK   38  A    between atoms: _75  and  _77
REMARK   39  A    between atoms: _77  and  _78
REMARK   40  A    between atoms: _81  and  _83
REMARK   41  A    between atoms: _83  and  _84
REMARK   42  A    between atoms: _83  and  _86
REMARK   43  A    between atoms: _86  and  _87
REMARK   44  A    between atoms: _90  and  _92
REMARK   45  A    between atoms: _92  and  _93
REMARK   46  A    between atoms: _92  and  _95
REMARK   47  A    between atoms: _95  and  _96
REMARK   48  A    between atoms: _96  and  _97
REMARK   49  A    between atoms: _97  and  _98
REMARK   50  A    between atoms: _107  and  _109
REMARK   51  A    between atoms: _109  and  _110
REMARK   52  A    between atoms: _109  and  _112
REMARK   53  A    between atoms: _112  and  _113
REMARK   54  A    between atoms: _113  and  _114
REMARK   55  A    between atoms: _114  and  _115
REMARK   56  A    between atoms: _124  and  _126
REMARK   57  A    between atoms: _126  and  _127
REMARK   58  A    between atoms: _126  and  _129
REMARK   59  A    between atoms: _129  and  _130
REMARK   60  A    between atoms: _133  and  _135
REMARK   61  A    between atoms: _135  and  _136
REMARK   62  A    between atoms: _138  and  _140
REMARK   63  A    between atoms: _140  and  _141
REMARK   64  A    between atoms: _140  and  _143
REMARK   65  A    between atoms: _143  and  _144
REMARK   66  A    between atoms: _144  and  _145
REMARK   67  A    between atoms: _150  and  _152
REMARK   68  A    between atoms: _152  and  _153
REMARK   69  A    between atoms: _152  and  _155
REMARK   70  A    between atoms: _155  and  _156
REMARK   71  A    between atoms: _159  and  _161
REMARK   72  A    between atoms: _161  and  _162
REMARK   73  A    between atoms: _161  and  _164
REMARK   74  A    between atoms: _164  and  _165
REMARK   75  A    between atoms: _165  and  _166
REMARK   76  A    between atoms: _166  and  _167
REMARK   77  A    between atoms: _176  and  _178
REMARK   78  A    between atoms: _178  and  _179
REMARK   79  A    between atoms: _178  and  _181
REMARK   80  A    between atoms: _181  and  _182
REMARK   81  A    between atoms: _187  and  _188
REMARK   82  A    between atoms: _190  and  _192
REMARK   83  A    between atoms: _192  and  _193
REMARK   84  A    between atoms: _192  and  _195
REMARK   85  A    between atoms: _195  and  _196
REMARK   86  A    between atoms: _196  and  _197
REMARK   87  A    between atoms: _199  and  _201
REMARK   88  A    between atoms: _201  and  _202
REMARK   89  A    between atoms: _201  and  _204
REMARK   90  A    between atoms: _207  and  _209
REMARK   91  A    between atoms: _209  and  _210
REMARK   92  A    between atoms: _209  and  _212
REMARK   93  A    between atoms: _212  and  _213
REMARK   94  A    between atoms: _218  and  _220
REMARK   95  A    between atoms: _220  and  _221
REMARK   96  A    between atoms: _220  and  _223
REMARK   97  A    between atoms: _223  and  _224
REMARK   98  A    between atoms: _224  and  _225
REMARK   99  A    between atoms: _225  and  _226
REMARK  100  A    between atoms: _226  and  _227
REMARK  101  A    between atoms: _231  and  _233
REMARK  102  A    between atoms: _233  and  _234
REMARK  103  A    between atoms: _233  and  _236
REMARK  104  A    between atoms: _236  and  _237
REMARK  105  A    between atoms: _240  and  _242
REMARK  106  A    between atoms: _242  and  _243
REMARK  107  A    between atoms: _245  and  _247
REMARK  108  A    between atoms: _247  and  _248
REMARK  109  A    between atoms: _250  and  _252
REMARK  110  A    between atoms: _252  and  _253
REMARK  111  A    between atoms: _252  and  _255
REMARK  112  A    between atoms: _255  and  _256
REMARK  113  A    between atoms: _259  and  _261
REMARK  114  A    between atoms: _261  and  _262
REMARK  115  A    between atoms: _261  and  _264
REMARK  116  A    between atoms: _264  and  _265
REMARK  117  A    between atoms: _271  and  _273
REMARK  118  A    between atoms: _273  and  _274
REMARK  119  A    between atoms: _276  and  _278
REMARK  120  A    between atoms: _278  and  _279
REMARK  121  A    between atoms: _278  and  _281
REMARK  122  A    between atoms: _281  and  _282
REMARK  123  A    between atoms: _287  and  _288
REMARK  124  A    between atoms: _290  and  _292
REMARK  125  A    between atoms: _292  and  _293
REMARK  126  A    between atoms: _292  and  _295
REMARK  127  A    between atoms: _295  and  _296
REMARK  128  A    between atoms: _296  and  _297
REMARK  129  A    between atoms: _302  and  _304
REMARK  130  A    between atoms: _304  and  _305
REMARK  131  A    between atoms: _304  and  _307
REMARK  132  A    between atoms: _307  and  _308
REMARK  133  A    between atoms: _311  and  _313
REMARK  134  A    between atoms: _313  and  _314
REMARK  135  A    between atoms: _313  and  _316
REMARK  136  A    between atoms: _316  and  _317
REMARK  137  A    between atoms: _320  and  _322
REMARK  138  A    between atoms: _322  and  _323
REMARK  139  A    between atoms: _322  and  _325
REMARK  140  A    between atoms: _325  and  _326
REMARK  141  A    between atoms: _331  and  _333
REMARK  142  A    between atoms: _333  and  _334
REMARK  143  A    between atoms: _333  and  _336
REMARK  144  A    between atoms: _336  and  _337
REMARK  145  A    between atoms: _340  and  _342
REMARK  146  A    between atoms: _342  and  _343
REMARK  147  A    between atoms: _342  and  _345
REMARK  148  A    between atoms: _345  and  _346
REMARK  149  A    between atoms: _346  and  _347
REMARK  150  A    between atoms: _350  and  _352
REMARK  151  A    between atoms: _352  and  _353
REMARK  152  A    between atoms: _352  and  _355
REMARK  153  A    between atoms: _355  and  _356
REMARK  154  A    between atoms: _356  and  _357
REMARK  155  A    between atoms: _357  and  _358
REMARK  156  A    between atoms: _358  and  _359
REMARK  157  A    between atoms: _363  and  _365
REMARK  158  A    between atoms: _365  and  _366
REMARK  159  A    between atoms: _365  and  _368
REMARK  160  A    between atoms: _368  and  _369
REMARK                            x       y       z     vdW  Elec       q    Type
REMARK                         _______ _______ _______ _____ _____    ______ ____
ROOT
ATOM      1  C   THR A   3      28.247  53.782  11.430  0.00  0.00    +0.243 C 
ATOM      2  O   THR A   3      29.429  53.804  11.767  0.00  0.00    -0.273 OA
ATOM      3  N   GLY A   4      27.383  54.765  11.684  0.00  0.00    -0.295 N 
ATOM      4  H   GLY A   4      26.395  54.668  11.373  0.00  0.00    +0.150 HD
ENDROOT
BRANCH   1   5
ATOM      5  CA  THR A   3      27.682  52.580  10.699  0.00  0.00    +0.176 C 
BRANCH   5   8
ATOM      6  C   LYS A   2      26.117  51.083  11.777  0.00  0.00    +0.241 C 
ATOM      7  O   LYS A   2      26.979  50.175  11.890  0.00  0.00    -0.273 OA
ATOM      8  N   THR A   3      26.366  52.255  11.222  0.00  0.00    -0.295 N 
ATOM      9  H   THR A   3      25.604  52.960  11.158  0.00  0.00    +0.150 HD
BRANCH   6  10
ATOM     10  CA  LYS A   2      24.662  50.872  12.208  0.00  0.00    +0.149 C 
BRANCH  10  13
ATOM     11  C   ASN A   1      24.346  52.725  13.800  0.00  0.00    +0.239 C 
ATOM     12  O   ASN A   1      25.391  52.476  14.408  0.00  0.00    -0.274 OA
ATOM     13  N   LYS A   2      23.956  52.048  12.725  0.00  0.00    -0.297 N 
ATOM     14  H   LYS A   2      23.104  52.370  12.223  0.00  0.00    +0.150 HD
BRANCH  11  15
ATOM     15  CA  ASN A   1      23.444  53.878  14.223  0.00  0.00    +0.154 C 
BRANCH  15  16
ATOM     16  N   ASN A   1      23.097  54.753  13.142  0.00  0.00    -0.238 NA
ATOM     17  H   ASN A   1      22.301  54.503  12.521  0.00  0.00    +0.142 HD
ENDBRANCH  15  16
BRANCH  15  18
ATOM     18  CB  ASN A   1      22.172  53.344  14.865  0.00  0.00    +0.111 C 
BRANCH  18  19
ATOM     19  CG  ASN A   1      21.751  54.171  16.033  0.00  0.00    +0.221 C 
ATOM     20  OD1 ASN A   1      22.594  54.816  16.655  0.00  0.00    -0.275 OA
ATOM     21  ND2 ASN A   1      20.473  54.171  16.350  0.00  0.00    -0.329 N 
ATOM     22 HD21 ASN A   1      20.138  54.733  17.158  0.00  0.00    +0.145 HD
ATOM     23 HD22 ASN A   1      19.799  53.609  15.792  0.00  0.00    +0.145 HD
ENDBRANCH  18  19
ENDBRANCH  15  18
ENDBRANCH  11  15
ENDBRANCH  10  13
BRANCH  10  24
ATOM     24  CB  LYS A   2      23.870  50.323  11.018  0.00  0.00    +0.029 C 
BRANCH  24  25
ATOM     25  CG  LYS A   2      24.558  49.246  10.215  0.00  0.00    +0.000 C 
BRANCH  25  26
ATOM     26  CD  LYS A   2      23.670  48.690   9.092  0.00  0.00    -0.024 C 
BRANCH  26  27
ATOM     27  CE  LYS A   2      24.033  49.189   7.690  0.00  0.00    -0.086 C 
BRANCH  27  28
ATOM     28  NZ  LYS A   2      23.530  48.240   6.610  0.00  0.00    +0.380 N 
ATOM     29  HZ1 LYS A   2      23.959  47.302   6.747  0.00  0.00    -0.089 HD
ATOM     30  HZ2 LYS A   2      22.495  48.162   6.674  0.00  0.00    -0.089 HD
ATOM     31  HZ3 LYS A   2      23.794  48.610   5.675  0.00  0.00    -0.089 HD
ENDBRANCH  27  28
ENDBRANCH  26  27
ENDBRANCH  25  26
ENDBRANCH  24  25
ENDBRANCH  10  24
ENDBRANCH   6  10
ENDBRANCH   5   8
BRANCH   5  32
ATOM     32  CB  THR A   3      27.582  52.877   9.160  0.00  0.00    +0.137 C 
ATOM     33  CG2 THR A   3      28.946  53.124   8.554  0.00  0.00    +0.034 C 
BRANCH  32  34
ATOM     34  OG1 THR A   3      27.002  51.745   8.515  0.00  0.00    -0.382 OA
ATOM     35  HG1 THR A   3      26.933  51.920   7.543  0.00  0.00    +0.210 HD
ENDBRANCH  32  34
ENDBRANCH   5  32
ENDBRANCH   1   5
BRANCH   3  36
ATOM     36  CA  GLY A   4      27.791  55.967  12.385  0.00  0.00    +0.176 C 
BRANCH  36  37
ATOM     37  C   GLY A   4      28.334  55.634  13.750  0.00  0.00    +0.243 C 
ATOM     38  N   GLY A   5      27.819  54.569  14.335  0.00  0.00    -0.295 N 
ATOM     39  H   GLY A   5      27.104  54.003  13.835  0.00  0.00    +0.150 HD
ATOM     40  O   GLY A   4      29.201  56.316  14.274  0.00  0.00    -0.273 OA
BRANCH  38  41
ATOM     41  CA  GLY A   5      28.238  54.178  15.666  0.00  0.00    +0.176 C 
BRANCH  41  42
ATOM     42  C   GLY A   5      29.739  54.002  15.824  0.00  0.00    +0.243 C 
ATOM     43  O   GLY A   5      30.337  54.585  16.727  0.00  0.00    -0.273 OA
ATOM     44  N   LEU A   6      30.372  53.229  14.956  0.00  0.00    -0.297 N 
ATOM     45  H   LEU A   6      29.851  52.778  14.177  0.00  0.00    +0.150 HD
BRANCH  44  46
ATOM     46  CA  LEU A   6      31.821  53.014  15.103  0.00  0.00    +0.149 C 
BRANCH  46  47
ATOM     47  C   LEU A   6      32.647  54.216  14.616  0.00  0.00    +0.241 C 
ATOM     48  O   LEU A   6      33.738  54.466  15.141  0.00  0.00    -0.273 OA
ATOM     49  N   PHE A   7      32.113  54.975  13.653  0.00  0.00    -0.298 N 
ATOM     50  H   PHE A   7      31.212  54.689  13.219  0.00  0.00    +0.150 HD
BRANCH  49  51
ATOM     51  CA  PHE A   7      32.772  56.199  13.199  0.00  0.00    +0.141 C 
BRANCH  51  52
ATOM     52  C   PHE A   7      32.799  57.181  14.422  0.00  0.00    +0.227 C 
ATOM     53  O   PHE A   7      33.872  57.734  14.783  0.00  0.00    -0.286 OA
ENDBRANCH  51  52
BRANCH  51  54
ATOM     54  CB  PHE A   7      31.984  56.800  12.021  0.00  0.00    +0.054 C 
BRANCH  54  55
ATOM     55  CG  PHE A   7      32.414  56.279  10.668  0.00  0.00    -0.020 A 
ATOM     56  CD2 PHE A   7      31.783  55.190  10.095  0.00  0.00    -0.004 A 
ATOM     57  CE2 PHE A   7      32.225  54.648   8.872  0.00  0.00    -0.000 A 
ATOM     58  CZ  PHE A   7      33.305  55.202   8.209  0.00  0.00    -0.000 A 
ATOM     59  CE1 PHE A   7      33.961  56.312   8.763  0.00  0.00    -0.000 A 
ATOM     60  CD1 PHE A   7      33.508  56.845   9.994  0.00  0.00    -0.004 A 
ENDBRANCH  54  55
ENDBRANCH  51  54
ENDBRANCH  49  51
ENDBRANCH  46  47
BRANCH  46  61
ATOM     61  CB  LEU A   6      32.253  51.685  14.435  0.00  0.00    +0.029 C 
BRANCH  61  62
ATOM     62  CG  LEU A   6      31.521  50.448  15.004  0.00  0.00    +0.002 C 
ATOM     63  CD2 LEU A   6      31.719  50.304  16.532  0.00  0.00    +0.000 C 
ATOM     64  CD1 LEU A   6      32.079  49.187  14.329  0.00  0.00    +0.000 C 
ENDBRANCH  61  62
ENDBRANCH  46  61
ENDBRANCH  44  46
ENDBRANCH  41  42
ENDBRANCH  38  41
ENDBRANCH  36  37
ENDBRANCH   3  36
TORSDOF 27
REMARK  Name = ../refined-set-2016/2e91/2e91_pocket.pdb
REMARK  160 active torsions:
REMARK  status: ('A' for Active; 'I' for Inactive)
REMARK    1  A    between atoms: _1  and  _3
REMARK    2  A    between atoms: _3  and  _4
REMARK    3  A    between atoms: _3  and  _6
REMARK    4  A    between atoms: _6  and  _7
REMARK    5  A    between atoms: _12  and  _14
REMARK    6  A    between atoms: _14  and  _15
REMARK    7  A    between atoms: _14  and  _17
REMARK    8  A    between atoms: _17  and  _18
REMARK    9  A    between atoms: _20  and  _22
REMARK   10  A    between atoms: _22  and  _23
REMARK   11  A    between atoms: _22  and  _25
REMARK   12  A    between atoms: _25  and  _26
REMARK   13  A    between atoms: _29  and  _31
REMARK   14  A    between atoms: _31  and  _32
REMARK   15  A    between atoms: _31  and  _34
REMARK   16  A    between atoms: _34  and  _35
REMARK   17  A    between atoms: _38  and  _40
REMARK   18  A    between atoms: _40  and  _41
REMARK   19  A    between atoms: _40  and  _43
REMARK   20  A    between atoms: _43  and  _44
REMARK   21  A    between atoms: _44  and  _45
REMARK   22  A    between atoms: _44  and  _46
REMARK   23  A    between atoms: _45  and  MG_371
REMARK   24  A    between atoms: _46  and  MG_372
REMARK   25  A    between atoms: _47  and  _49
REMARK   26  A    between atoms: _49  and  _50
REMARK   27  A    between atoms: _49  and  _52
REMARK   28  A    between atoms: _52  and  _53
REMARK   29  A    between atoms: _56  and  _58
REMARK   30  A    between atoms: _58  and  _59
REMARK   31  A    between atoms: _58  and  _61
REMARK   32  A    between atoms: _61  and  _62
REMARK   33  A    between atoms: _62  and  _63
REMARK   34  A    between atoms: _66  and  _68
REMARK   35  A    between atoms: _68  and  _69
REMARK   36  A    between atoms: _68  and  _71
REMARK   37  A    between atoms: _71  and  _72
REMARK   38  A    between atoms: _75  and  _77
REMARK   39  A    between atoms: _77  and  _78
REMARK   40  A    between atoms: _81  and  _83
REMARK   41  A    between atoms: _83  and  _84
REMARK   42  A    between atoms: _83  and  _86
REMARK   43  A    between atoms: _86  and  _87
REMARK   44  A    between atoms: _90  and  _92
REMARK   45  A    between atoms: _92  and  _93
REMARK   46  A    between atoms: _92  and  _95
REMARK   47  A    between atoms: _95  and  _96
REMARK   48  A    between atoms: _96  and  _97
REMARK   49  A    between atoms: _97  and  _98
REMARK   50  A    between atoms: _107  and  _109
REMARK   51  A    between atoms: _109  and  _110
REMARK   52  A    between atoms: _109  and  _112
REMARK   53  A    between atoms: _112  and  _113
REMARK   54  A    between atoms: _113  and  _114
REMARK   55  A    between atoms: _114  and  _115
REMARK   56  A    between atoms: _124  and  _126
REMARK   57  A    between atoms: _126  and  _127
REMARK   58  A    between atoms: _126  and  _129
REMARK   59  A    between atoms: _129  and  _130
REMARK   60  A    between atoms: _133  and  _135
REMARK   61  A    between atoms: _135  and  _136
REMARK   62  A    between atoms: _138  and  _140
REMARK   63  A    between atoms: _140  and  _141
REMARK   64  A    between atoms: _140  and  _143
REMARK   65  A    between atoms: _143  and  _144
REMARK   66  A    between atoms: _144  and  _145
REMARK   67  A    between atoms: _150  and  _152
REMARK   68  A    between atoms: _152  and  _153
REMARK   69  A    between atoms: _152  and  _155
REMARK   70  A    between atoms: _155  and  _156
REMARK   71  A    between atoms: _159  and  _161
REMARK   72  A    between atoms: _161  and  _162
REMARK   73  A    between atoms: _161  and  _164
REMARK   74  A    between atoms: _164  and  _165
REMARK   75  A    between atoms: _165  and  _166
REMARK   76  A    between atoms: _166  and  _167
REMARK   77  A    between atoms: _176  and  _178
REMARK   78  A    between atoms: _178  and  _179
REMARK   79  A    between atoms: _178  and  _181
REMARK   80  A    between atoms: _181  and  _182
REMARK   81  A    between atoms: _187  and  _188
REMARK   82  A    between atoms: _190  and  _192
REMARK   83  A    between atoms: _192  and  _193
REMARK   84  A    between atoms: _192  and  _195
REMARK   85  A    between atoms: _195  and  _196
REMARK   86  A    between atoms: _196  and  _197
REMARK   87  A    between atoms: _199  and  _201
REMARK   88  A    between atoms: _201  and  _202
REMARK   89  A    between atoms: _201  and  _204
REMARK   90  A    between atoms: _207  and  _209
REMARK   91  A    between atoms: _209  and  _210
REMARK   92  A    between atoms: _209  and  _212
REMARK   93  A    between atoms: _212  and  _213
REMARK   94  A    between atoms: _218  and  _220
REMARK   95  A    between atoms: _220  and  _221
REMARK   96  A    between atoms: _220  and  _223
REMARK   97  A    between atoms: _223  and  _224
REMARK   98  A    between atoms: _224  and  _225
REMARK   99  A    between atoms: _225  and  _226
REMARK  100  A    between atoms: _226  and  _227
REMARK  101  A    between atoms: _231  and  _233
REMARK  102  A    between atoms: _233  and  _234
REMARK  103  A    between atoms: _233  and  _236
REMARK  104  A    between atoms: _236  and  _237
REMARK  105  A    between atoms: _240  and  _242
REMARK  106  A    between atoms: _242  and  _243
REMARK  107  A    between atoms: _245  and  _247
REMARK  108  A    between atoms: _247  and  _248
REMARK  109  A    between atoms: _250  and  _252
REMARK  110  A    between atoms: _252  and  _253
REMARK  111  A    between atoms: _252  and  _255
REMARK  112  A    between atoms: _255  and  _256
REMARK  113  A    between atoms: _259  and  _261
REMARK  114  A    between atoms: _261  and  _262
REMARK  115  A    between atoms: _261  and  _264
REMARK  116  A    between atoms: _264  and  _265
REMARK  117  A    between atoms: _271  and  _273
REMARK  118  A    between atoms: _273  and  _274
REMARK  119  A    between atoms: _276  and  _278
REMARK  120  A    between atoms: _278  and  _279
REMARK  121  A    between atoms: _278  and  _281
REMARK  122  A    between atoms: _281  and  _282
REMARK  123  A    between atoms: _287  and  _288
REMARK  124  A    between atoms: _290  and  _292
REMARK  125  A    between atoms: _292  and  _293
REMARK  126  A    between atoms: _292  and  _295
REMARK  127  A    between atoms: _295  and  _296
REMARK  128  A    between atoms: _296  and  _297
REMARK  129  A    between atoms: _302  and  _304
REMARK  130  A    between atoms: _304  and  _305
REMARK  131  A    between atoms: _304  and  _307
REMARK  132  A    between atoms: _307  and  _308
REMARK  133  A    between atoms: _311  and  _313
REMARK  134  A    between atoms: _313  and  _314
REMARK  135  A    between atoms: _313  and  _316
REMARK  136  A    between atoms: _316  and  _317
REMARK  137  A    between atoms: _320  and  _322
REMARK  138  A    between atoms: _322  and  _323
REMARK  139  A    between atoms: _322  and  _325
REMARK  140  A    between atoms: _325  and  _326
REMARK  141  A    between atoms: _331  and  _333
REMARK  142  A    between atoms: _333  and  _334
REMARK  143  A    between atoms: _333  and  _336
REMARK  144  A    between atoms: _336  and  _337
REMARK  145  A    between atoms: _340  and  _342
REMARK  146  A    between atoms: _342  and  _343
REMARK  147  A    between atoms: _342  and  _345
REMARK  148  A    between atoms: _345  and  _346
REMARK  149  A    between atoms: _346  and  _347
REMARK  150  A    between atoms: _350  and  _352
REMARK  151  A    between atoms: _352  and  _353
REMARK  152  A    between atoms: _352  and  _355
REMARK  153  A    between atoms: _355  and  _356
REMARK  154  A    between atoms: _356  and  _357
REMARK  155  A    between atoms: _357  and  _358
REMARK  156  A    between atoms: _358  and  _359
REMARK  157  A    between atoms: _363  and  _365
REMARK  158  A    between atoms: _365  and  _366
REMARK  159  A    between atoms: _365  and  _368
REMARK  160  A    between atoms: _368  and  _369
REMARK                            x       y       z     vdW  Elec       q    Type
REMARK                         _______ _______ _______ _____ _____    ______ ____
ROOT
ATOM      1  CA  GLY A   1      29.506  57.177   7.736  0.00  0.00    +0.156 C 
ENDROOT
BRANCH   1   2
ATOM      2  N   GLY A   1      30.102  58.509   7.605  0.00  0.00    -0.238 NA
ATOM      3  H   GLY A   1      30.049  59.176   8.401  0.00  0.00    +0.142 HD
ENDBRANCH   1   2
BRANCH   1   4
ATOM      4  C   GLY A   1      28.305  56.939   6.801  0.00  0.00    +0.226 C 
ATOM      5  O   GLY A   1      28.096  55.822   6.263  0.00  0.00    -0.287 OA
ENDBRANCH   1   4
TORSDOF 2
REMARK  Name = ../refined-set-2016/2e91/2e91_pocket.pdb
REMARK  160 active torsions:
REMARK  status: ('A' for Active; 'I' for Inactive)
REMARK    1  A    between atoms: _1  and  _3
REMARK    2  A    between atoms: _3  and  _4
REMARK    3  A    between atoms: _3  and  _6
REMARK    4  A    between atoms: _6  and  _7
REMARK    5  A    between atoms: _12  and  _14
REMARK    6  A    between atoms: _14  and  _15
REMARK    7  A    between atoms: _14  and  _17
REMARK    8  A    between atoms: _17  and  _18
REMARK    9  A    between atoms: _20  and  _22
REMARK   10  A    between atoms: _22  and  _23
REMARK   11  A    between atoms: _22  and  _25
REMARK   12  A    between atoms: _25  and  _26
REMARK   13  A    between atoms: _29  and  _31
REMARK   14  A    between atoms: _31  and  _32
REMARK   15  A    between atoms: _31  and  _34
REMARK   16  A    between atoms: _34  and  _35
REMARK   17  A    between atoms: _38  and  _40
REMARK   18  A    between atoms: _40  and  _41
REMARK   19  A    between atoms: _40  and  _43
REMARK   20  A    between atoms: _43  and  _44
REMARK   21  A    between atoms: _44  and  _45
REMARK   22  A    between atoms: _44  and  _46
REMARK   23  A    between atoms: _45  and  MG_371
REMARK   24  A    between atoms: _46  and  MG_372
REMARK   25  A    between atoms: _47  and  _49
REMARK   26  A    between atoms: _49  and  _50
REMARK   27  A    between atoms: _49  and  _52
REMARK   28  A    between atoms: _52  and  _53
REMARK   29  A    between atoms: _56  and  _58
REMARK   30  A    between atoms: _58  and  _59
REMARK   31  A    between atoms: _58  and  _61
REMARK   32  A    between atoms: _61  and  _62
REMARK   33  A    between atoms: _62  and  _63
REMARK   34  A    between atoms: _66  and  _68
REMARK   35  A    between atoms: _68  and  _69
REMARK   36  A    between atoms: _68  and  _71
REMARK   37  A    between atoms: _71  and  _72
REMARK   38  A    between atoms: _75  and  _77
REMARK   39  A    between atoms: _77  and  _78
REMARK   40  A    between atoms: _81  and  _83
REMARK   41  A    between atoms: _83  and  _84
REMARK   42  A    between atoms: _83  and  _86
REMARK   43  A    between atoms: _86  and  _87
REMARK   44  A    between atoms: _90  and  _92
REMARK   45  A    between atoms: _92  and  _93
REMARK   46  A    between atoms: _92  and  _95
REMARK   47  A    between atoms: _95  and  _96
REMARK   48  A    between atoms: _96  and  _97
REMARK   49  A    between atoms: _97  and  _98
REMARK   50  A    between atoms: _107  and  _109
REMARK   51  A    between atoms: _109  and  _110
REMARK   52  A    between atoms: _109  and  _112
REMARK   53  A    between atoms: _112  and  _113
REMARK   54  A    between atoms: _113  and  _114
REMARK   55  A    between atoms: _114  and  _115
REMARK   56  A    between atoms: _124  and  _126
REMARK   57  A    between atoms: _126  and  _127
REMARK   58  A    between atoms: _126  and  _129
REMARK   59  A    between atoms: _129  and  _130
REMARK   60  A    between atoms: _133  and  _135
REMARK   61  A    between atoms: _135  and  _136
REMARK   62  A    between atoms: _138  and  _140
REMARK   63  A    between atoms: _140  and  _141
REMARK   64  A    between atoms: _140  and  _143
REMARK   65  A    between atoms: _143  and  _144
REMARK   66  A    between atoms: _144  and  _145
REMARK   67  A    between atoms: _150  and  _152
REMARK   68  A    between atoms: _152  and  _153
REMARK   69  A    between atoms: _152  and  _155
REMARK   70  A    between atoms: _155  and  _156
REMARK   71  A    between atoms: _159  and  _161
REMARK   72  A    between atoms: _161  and  _162
REMARK   73  A    between atoms: _161  and  _164
REMARK   74  A    between atoms: _164  and  _165
REMARK   75  A    between atoms: _165  and  _166
REMARK   76  A    between atoms: _166  and  _167
REMARK   77  A    between atoms: _176  and  _178
REMARK   78  A    between atoms: _178  and  _179
REMARK   79  A    between atoms: _178  and  _181
REMARK   80  A    between atoms: _181  and  _182
REMARK   81  A    between atoms: _187  and  _188
REMARK   82  A    between atoms: _190  and  _192
REMARK   83  A    between atoms: _192  and  _193
REMARK   84  A    between atoms: _192  and  _195
REMARK   85  A    between atoms: _195  and  _196
REMARK   86  A    between atoms: _196  and  _197
REMARK   87  A    between atoms: _199  and  _201
REMARK   88  A    between atoms: _201  and  _202
REMARK   89  A    between atoms: _201  and  _204
REMARK   90  A    between atoms: _207  and  _209
REMARK   91  A    between atoms: _209  and  _210
REMARK   92  A    between atoms: _209  and  _212
REMARK   93  A    between atoms: _212  and  _213
REMARK   94  A    between atoms: _218  and  _220
REMARK   95  A    between atoms: _220  and  _221
REMARK   96  A    between atoms: _220  and  _223
REMARK   97  A    between atoms: _223  and  _224
REMARK   98  A    between atoms: _224  and  _225
REMARK   99  A    between atoms: _225  and  _226
REMARK  100  A    between atoms: _226  and  _227
REMARK  101  A    between atoms: _231  and  _233
REMARK  102  A    between atoms: _233  and  _234
REMARK  103  A    between atoms: _233  and  _236
REMARK  104  A    between atoms: _236  and  _237
REMARK  105  A    between atoms: _240  and  _242
REMARK  106  A    between atoms: _242  and  _243
REMARK  107  A    between atoms: _245  and  _247
REMARK  108  A    between atoms: _247  and  _248
REMARK  109  A    between atoms: _250  and  _252
REMARK  110  A    between atoms: _252  and  _253
REMARK  111  A    between atoms: _252  and  _255
REMARK  112  A    between atoms: _255  and  _256
REMARK  113  A    between atoms: _259  and  _261
REMARK  114  A    between atoms: _261  and  _262
REMARK  115  A    between atoms: _261  and  _264
REMARK  116  A    between atoms: _264  and  _265
REMARK  117  A    between atoms: _271  and  _273
REMARK  118  A    between atoms: _273  and  _274
REMARK  119  A    between atoms: _276  and  _278
REMARK  120  A    between atoms: _278  and  _279
REMARK  121  A    between atoms: _278  and  _281
REMARK  122  A    between atoms: _281  and  _282
REMARK  123  A    between atoms: _287  and  _288
REMARK  124  A    between atoms: _290  and  _292
REMARK  125  A    between atoms: _292  and  _293
REMARK  126  A    between atoms: _292  and  _295
REMARK  127  A    between atoms: _295  and  _296
REMARK  128  A    between atoms: _296  and  _297
REMARK  129  A    between atoms: _302  and  _304
REMARK  130  A    between atoms: _304  and  _305
REMARK  131  A    between atoms: _304  and  _307
REMARK  132  A    between atoms: _307  and  _308
REMARK  133  A    between atoms: _311  and  _313
REMARK  134  A    between atoms: _313  and  _314
REMARK  135  A    between atoms: _313  and  _316
REMARK  136  A    between atoms: _316  and  _317
REMARK  137  A    between atoms: _320  and  _322
REMARK  138  A    between atoms: _322  and  _323
REMARK  139  A    between atoms: _322  and  _325
REMARK  140  A    between atoms: _325  and  _326
REMARK  141  A    between atoms: _331  and  _333
REMARK  142  A    between atoms: _333  and  _334
REMARK  143  A    between atoms: _333  and  _336
REMARK  144  A    between atoms: _336  and  _337
REMARK  145  A    between atoms: _340  and  _342
REMARK  146  A    between atoms: _342  and  _343
REMARK  147  A    between atoms: _342  and  _345
REMARK  148  A    between atoms: _345  and  _346
REMARK  149  A    between atoms: _346  and  _347
REMARK  150  A    between atoms: _350  and  _352
REMARK  151  A    between atoms: _352  and  _353
REMARK  152  A    between atoms: _352  and  _355
REMARK  153  A    between atoms: _355  and  _356
REMARK  154  A    between atoms: _356  and  _357
REMARK  155  A    between atoms: _357  and  _358
REMARK  156  A    between atoms: _358  and  _359
REMARK  157  A    between atoms: _363  and  _365
REMARK  158  A    between atoms: _365  and  _366
REMARK  159  A    between atoms: _365  and  _368
REMARK  160  A    between atoms: _368  and  _369
REMARK                            x       y       z     vdW  Elec       q    Type
REMARK                         _______ _______ _______ _____ _____    ______ ____
ROOT
ATOM      1  C   TYR A   1      29.301  54.181   3.168  0.00  0.00    +0.239 C 
ATOM      2  N   GLN A   2      28.201  54.168   3.938  0.00  0.00    -0.298 N 
ATOM      3  H   GLN A   2      28.068  54.916   4.648  0.00  0.00    +0.150 HD
ATOM      4  O   TYR A   1      29.528  53.332   2.301  0.00  0.00    -0.274 OA
ENDROOT
BRANCH   1   5
ATOM      5  CA  TYR A   1      30.324  55.304   3.441  0.00  0.00    +0.149 C 
BRANCH   5   6
ATOM      6  N   TYR A   1      29.719  56.621   3.509  0.00  0.00    -0.238 NA
ATOM      7  H   TYR A   1      29.839  57.219   4.351  0.00  0.00    +0.142 HD
ENDBRANCH   5   6
BRANCH   5   8
ATOM      8  CB  TYR A   1      31.068  54.951   4.740  0.00  0.00    +0.053 C 
BRANCH   8   9
ATOM      9  CG  TYR A   1      31.551  53.518   4.720  0.00  0.00    -0.020 A 
ATOM     10  CD2 TYR A   1      30.683  52.471   5.072  0.00  0.00    -0.001 A 
ATOM     11  CE2 TYR A   1      31.069  51.130   4.979  0.00  0.00    +0.036 A 
ATOM     12  CZ  TYR A   1      32.353  50.794   4.531  0.00  0.00    +0.134 A 
ATOM     13  CE1 TYR A   1      33.259  51.817   4.177  0.00  0.00    +0.036 A 
ATOM     14  CD1 TYR A   1      32.844  53.185   4.274  0.00  0.00    -0.001 A 
BRANCH  12  15
ATOM     15  OH  TYR A   1      32.675  49.429   4.414  0.00  0.00    -0.506 OA
ATOM     16  HH  TYR A   1      32.588  48.994   5.299  0.00  0.00    +0.292 HD
ENDBRANCH  12  15
ENDBRANCH   8   9
ENDBRANCH   5   8
ENDBRANCH   1   5
BRANCH   2  17
ATOM     17  CA  GLN A   2      27.190  53.129   3.800  0.00  0.00    +0.137 C 
BRANCH  17  18
ATOM     18  C   GLN A   2      26.427  53.162   2.472  0.00  0.00    +0.227 C 
ATOM     19  O   GLN A   2      26.213  52.117   1.828  0.00  0.00    -0.286 OA
ENDBRANCH  17  18
BRANCH  17  20
ATOM     20  CB  GLN A   2      26.167  53.182   4.965  0.00  0.00    +0.037 C 
BRANCH  20  21
ATOM     21  CG  GLN A   2      25.243  51.929   4.996  0.00  0.00    +0.087 C 
BRANCH  21  22
ATOM     22  CD  GLN A   2      26.077  50.656   5.102  0.00  0.00    +0.219 C 
ATOM     23  OE1 GLN A   2      26.925  50.573   5.986  0.00  0.00    -0.275 OA
ATOM     24  NE2 GLN A   2      25.860  49.677   4.210  0.00  0.00    -0.329 N 
ATOM     25 HE21 GLN A   2      26.422  48.803   4.250  0.00  0.00    +0.145 HD
ATOM     26 HE22 GLN A   2      25.130  49.793   3.478  0.00  0.00    +0.145 HD
ENDBRANCH  21  22
ENDBRANCH  20  21
ENDBRANCH  17  20
ENDBRANCH   2  17
TORSDOF 10
REMARK  Name = ../refined-set-2016/2e91/2e91_pocket.pdb
REMARK  160 active torsions:
REMARK  status: ('A' for Active; 'I' for Inactive)
REMARK    1  A    between atoms: _1  and  _3
REMARK    2  A    between atoms: _3  and  _4
REMARK    3  A    between atoms: _3  and  _6
REMARK    4  A    between atoms: _6  and  _7
REMARK    5  A    between atoms: _12  and  _14
REMARK    6  A    between atoms: _14  and  _15
REMARK    7  A    between atoms: _14  and  _17
REMARK    8  A    between atoms: _17  and  _18
REMARK    9  A    between atoms: _20  and  _22
REMARK   10  A    between atoms: _22  and  _23
REMARK   11  A    between atoms: _22  and  _25
REMARK   12  A    between atoms: _25  and  _26
REMARK   13  A    between atoms: _29  and  _31
REMARK   14  A    between atoms: _31  and  _32
REMARK   15  A    between atoms: _31  and  _34
REMARK   16  A    between atoms: _34  and  _35
REMARK   17  A    between atoms: _38  and  _40
REMARK   18  A    between atoms: _40  and  _41
REMARK   19  A    between atoms: _40  and  _43
REMARK   20  A    between atoms: _43  and  _44
REMARK   21  A    between atoms: _44  and  _45
REMARK   22  A    between atoms: _44  and  _46
REMARK   23  A    between atoms: _45  and  MG_371
REMARK   24  A    between atoms: _46  and  MG_372
REMARK   25  A    between atoms: _47  and  _49
REMARK   26  A    between atoms: _49  and  _50
REMARK   27  A    between atoms: _49  and  _52
REMARK   28  A    between atoms: _52  and  _53
REMARK   29  A    between atoms: _56  and  _58
REMARK   30  A    between atoms: _58  and  _59
REMARK   31  A    between atoms: _58  and  _61
REMARK   32  A    between atoms: _61  and  _62
REMARK   33  A    between atoms: _62  and  _63
REMARK   34  A    between atoms: _66  and  _68
REMARK   35  A    between atoms: _68  and  _69
REMARK   36  A    between atoms: _68  and  _71
REMARK   37  A    between atoms: _71  and  _72
REMARK   38  A    between atoms: _75  and  _77
REMARK   39  A    between atoms: _77  and  _78
REMARK   40  A    between atoms: _81  and  _83
REMARK   41  A    between atoms: _83  and  _84
REMARK   42  A    between atoms: _83  and  _86
REMARK   43  A    between atoms: _86  and  _87
REMARK   44  A    between atoms: _90  and  _92
REMARK   45  A    between atoms: _92  and  _93
REMARK   46  A    between atoms: _92  and  _95
REMARK   47  A    between atoms: _95  and  _96
REMARK   48  A    between atoms: _96  and  _97
REMARK   49  A    between atoms: _97  and  _98
REMARK   50  A    between atoms: _107  and  _109
REMARK   51  A    between atoms: _109  and  _110
REMARK   52  A    between atoms: _109  and  _112
REMARK   53  A    between atoms: _112  and  _113
REMARK   54  A    between atoms: _113  and  _114
REMARK   55  A    between atoms: _114  and  _115
REMARK   56  A    between atoms: _124  and  _126
REMARK   57  A    between atoms: _126  and  _127
REMARK   58  A    between atoms: _126  and  _129
REMARK   59  A    between atoms: _129  and  _130
REMARK   60  A    between atoms: _133  and  _135
REMARK   61  A    between atoms: _135  and  _136
REMARK   62  A    between atoms: _138  and  _140
REMARK   63  A    between atoms: _140  and  _141
REMARK   64  A    between atoms: _140  and  _143
REMARK   65  A    between atoms: _143  and  _144
REMARK   66  A    between atoms: _144  and  _145
REMARK   67  A    between atoms: _150  and  _152
REMARK   68  A    between atoms: _152  and  _153
REMARK   69  A    between atoms: _152  and  _155
REMARK   70  A    between atoms: _155  and  _156
REMARK   71  A    between atoms: _159  and  _161
REMARK   72  A    between atoms: _161  and  _162
REMARK   73  A    between atoms: _161  and  _164
REMARK   74  A    between atoms: _164  and  _165
REMARK   75  A    between atoms: _165  and  _166
REMARK   76  A    between atoms: _166  and  _167
REMARK   77  A    between atoms: _176  and  _178
REMARK   78  A    between atoms: _178  and  _179
REMARK   79  A    between atoms: _178  and  _181
REMARK   80  A    between atoms: _181  and  _182
REMARK   81  A    between atoms: _187  and  _188
REMARK   82  A    between atoms: _190  and  _192
REMARK   83  A    between atoms: _192  and  _193
REMARK   84  A    between atoms: _192  and  _195
REMARK   85  A    between atoms: _195  and  _196
REMARK   86  A    between atoms: _196  and  _197
REMARK   87  A    between atoms: _199  and  _201
REMARK   88  A    between atoms: _201  and  _202
REMARK   89  A    between atoms: _201  and  _204
REMARK   90  A    between atoms: _207  and  _209
REMARK   91  A    between atoms: _209  and  _210
REMARK   92  A    between atoms: _209  and  _212
REMARK   93  A    between atoms: _212  and  _213
REMARK   94  A    between atoms: _218  and  _220
REMARK   95  A    between atoms: _220  and  _221
REMARK   96  A    between atoms: _220  and  _223
REMARK   97  A    between atoms: _223  and  _224
REMARK   98  A    between atoms: _224  and  _225
REMARK   99  A    between atoms: _225  and  _226
REMARK  100  A    between atoms: _226  and  _227
REMARK  101  A    between atoms: _231  and  _233
REMARK  102  A    between atoms: _233  and  _234
REMARK  103  A    between atoms: _233  and  _236
REMARK  104  A    between atoms: _236  and  _237
REMARK  105  A    between atoms: _240  and  _242
REMARK  106  A    between atoms: _242  and  _243
REMARK  107  A    between atoms: _245  and  _247
REMARK  108  A    between atoms: _247  and  _248
REMARK  109  A    between atoms: _250  and  _252
REMARK  110  A    between atoms: _252  and  _253
REMARK  111  A    between atoms: _252  and  _255
REMARK  112  A    between atoms: _255  and  _256
REMARK  113  A    between atoms: _259  and  _261
REMARK  114  A    between atoms: _261  and  _262
REMARK  115  A    between atoms: _261  and  _264
REMARK  116  A    between atoms: _264  and  _265
REMARK  117  A    between atoms: _271  and  _273
REMARK  118  A    between atoms: _273  and  _274
REMARK  119  A    between atoms: _276  and  _278
REMARK  120  A    between atoms: _278  and  _279
REMARK  121  A    between atoms: _278  and  _281
REMARK  122  A    between atoms: _281  and  _282
REMARK  123  A    between atoms: _287  and  _288
REMARK  124  A    between atoms: _290  and  _292
REMARK  125  A    between atoms: _292  and  _293
REMARK  126  A    between atoms: _292  and  _295
REMARK  127  A    between atoms: _295  and  _296
REMARK  128  A    between atoms: _296  and  _297
REMARK  129  A    between atoms: _302  and  _304
REMARK  130  A    between atoms: _304  and  _305
REMARK  131  A    between atoms: _304  and  _307
REMARK  132  A    between atoms: _307  and  _308
REMARK  133  A    between atoms: _311  and  _313
REMARK  134  A    between atoms: _313  and  _314
REMARK  135  A    between atoms: _313  and  _316
REMARK  136  A    between atoms: _316  and  _317
REMARK  137  A    between atoms: _320  and  _322
REMARK  138  A    between atoms: _322  and  _323
REMARK  139  A    between atoms: _322  and  _325
REMARK  140  A    between atoms: _325  and  _326
REMARK  141  A    between atoms: _331  and  _333
REMARK  142  A    between atoms: _333  and  _334
REMARK  143  A    between atoms: _333  and  _336
REMARK  144  A    between atoms: _336  and  _337
REMARK  145  A    between atoms: _340  and  _342
REMARK  146  A    between atoms: _342  and  _343
REMARK  147  A    between atoms: _342  and  _345
REMARK  148  A    between atoms: _345  and  _346
REMARK  149  A    between atoms: _346  and  _347
REMARK  150  A    between atoms: _350  and  _352
REMARK  151  A    between atoms: _352  and  _353
REMARK  152  A    between atoms: _352  and  _355
REMARK  153  A    between atoms: _355  and  _356
REMARK  154  A    between atoms: _356  and  _357
REMARK  155  A    between atoms: _357  and  _358
REMARK  156  A    between atoms: _358  and  _359
REMARK  157  A    between atoms: _363  and  _365
REMARK  158  A    between atoms: _365  and  _366
REMARK  159  A    between atoms: _365  and  _368
REMARK  160  A    between atoms: _368  and  _369
REMARK                            x       y       z     vdW  Elec       q    Type
REMARK                         _______ _______ _______ _____ _____    ______ ____
ROOT
ATOM      1  C   ASP A   1      27.643  49.713  -0.670  0.00  0.00    +0.239 C 
ATOM      2  N   ASP A   2      26.447  50.238  -0.360  0.00  0.00    -0.298 N 
ATOM      3  H   ASP A   2      26.399  51.046   0.292  0.00  0.00    +0.150 HD
ATOM      4  O   ASP A   1      27.760  48.724  -1.402  0.00  0.00    -0.274 OA
ENDROOT
BRANCH   1   5
ATOM      5  CA  ASP A   1      28.906  50.388  -0.028  0.00  0.00    +0.156 C 
BRANCH   5   6
ATOM      6  N   ASP A   1      28.752  51.838  -0.180  0.00  0.00    -0.238 NA
ATOM      7  H   ASP A   1      28.765  52.425   0.678  0.00  0.00    +0.142 HD
ENDBRANCH   5   6
BRANCH   5   8
ATOM      8  CB  ASP A   1      28.966  50.059   1.471  0.00  0.00    +0.140 C 
BRANCH   8   9
ATOM      9  CG  ASP A   1      29.126  48.563   1.772  0.00  0.00    +0.367 C 
ATOM     10  OD2 ASP A   1      28.169  47.905   2.291  0.00  0.00    -0.246 OA
ATOM     11  OD1 ASP A   1      30.243  48.059   1.512  0.00  0.00    -0.246 OA
ENDBRANCH   8   9
ENDBRANCH   5   8
ENDBRANCH   1   5
BRANCH   2  12
ATOM     12  CA  ASP A   2      25.219  49.699  -0.918  0.00  0.00    +0.148 C 
BRANCH  12  13
ATOM     13  C   ASP A   2      25.232  49.824  -2.455  0.00  0.00    +0.227 C 
ATOM     14  O   ASP A   2      24.944  48.892  -3.184  0.00  0.00    -0.286 OA
ENDBRANCH  12  13
BRANCH  12  15
ATOM     15  CB  ASP A   2      24.009  50.468  -0.396  0.00  0.00    +0.142 C 
BRANCH  15  16
ATOM     16  CG  ASP A   2      23.665  50.128   1.043  0.00  0.00    +0.367 C 
ATOM     17  OD2 ASP A   2      24.358  49.308   1.664  0.00  0.00    -0.246 OA
ATOM     18  OD1 ASP A   2      22.683  50.686   1.560  0.00  0.00    -0.246 OA
ENDBRANCH  15  16
ENDBRANCH  12  15
ENDBRANCH   2  12
TORSDOF 8
REMARK  Name = ../refined-set-2016/2e91/2e91_pocket.pdb
REMARK  160 active torsions:
REMARK  status: ('A' for Active; 'I' for Inactive)
REMARK    1  A    between atoms: _1  and  _3
REMARK    2  A    between atoms: _3  and  _4
REMARK    3  A    between atoms: _3  and  _6
REMARK    4  A    between atoms: _6  and  _7
REMARK    5  A    between atoms: _12  and  _14
REMARK    6  A    between atoms: _14  and  _15
REMARK    7  A    between atoms: _14  and  _17
REMARK    8  A    between atoms: _17  and  _18
REMARK    9  A    between atoms: _20  and  _22
REMARK   10  A    between atoms: _22  and  _23
REMARK   11  A    between atoms: _22  and  _25
REMARK   12  A    between atoms: _25  and  _26
REMARK   13  A    between atoms: _29  and  _31
REMARK   14  A    between atoms: _31  and  _32
REMARK   15  A    between atoms: _31  and  _34
REMARK   16  A    between atoms: _34  and  _35
REMARK   17  A    between atoms: _38  and  _40
REMARK   18  A    between atoms: _40  and  _41
REMARK   19  A    between atoms: _40  and  _43
REMARK   20  A    between atoms: _43  and  _44
REMARK   21  A    between atoms: _44  and  _45
REMARK   22  A    between atoms: _44  and  _46
REMARK   23  A    between atoms: _45  and  MG_371
REMARK   24  A    between atoms: _46  and  MG_372
REMARK   25  A    between atoms: _47  and  _49
REMARK   26  A    between atoms: _49  and  _50
REMARK   27  A    between atoms: _49  and  _52
REMARK   28  A    between atoms: _52  and  _53
REMARK   29  A    between atoms: _56  and  _58
REMARK   30  A    between atoms: _58  and  _59
REMARK   31  A    between atoms: _58  and  _61
REMARK   32  A    between atoms: _61  and  _62
REMARK   33  A    between atoms: _62  and  _63
REMARK   34  A    between atoms: _66  and  _68
REMARK   35  A    between atoms: _68  and  _69
REMARK   36  A    between atoms: _68  and  _71
REMARK   37  A    between atoms: _71  and  _72
REMARK   38  A    between atoms: _75  and  _77
REMARK   39  A    between atoms: _77  and  _78
REMARK   40  A    between atoms: _81  and  _83
REMARK   41  A    between atoms: _83  and  _84
REMARK   42  A    between atoms: _83  and  _86
REMARK   43  A    between atoms: _86  and  _87
REMARK   44  A    between atoms: _90  and  _92
REMARK   45  A    between atoms: _92  and  _93
REMARK   46  A    between atoms: _92  and  _95
REMARK   47  A    between atoms: _95  and  _96
REMARK   48  A    between atoms: _96  and  _97
REMARK   49  A    between atoms: _97  and  _98
REMARK   50  A    between atoms: _107  and  _109
REMARK   51  A    between atoms: _109  and  _110
REMARK   52  A    between atoms: _109  and  _112
REMARK   53  A    between atoms: _112  and  _113
REMARK   54  A    between atoms: _113  and  _114
REMARK   55  A    between atoms: _114  and  _115
REMARK   56  A    between atoms: _124  and  _126
REMARK   57  A    between atoms: _126  and  _127
REMARK   58  A    between atoms: _126  and  _129
REMARK   59  A    between atoms: _129  and  _130
REMARK   60  A    between atoms: _133  and  _135
REMARK   61  A    between atoms: _135  and  _136
REMARK   62  A    between atoms: _138  and  _140
REMARK   63  A    between atoms: _140  and  _141
REMARK   64  A    between atoms: _140  and  _143
REMARK   65  A    between atoms: _143  and  _144
REMARK   66  A    between atoms: _144  and  _145
REMARK   67  A    between atoms: _150  and  _152
REMARK   68  A    between atoms: _152  and  _153
REMARK   69  A    between atoms: _152  and  _155
REMARK   70  A    between atoms: _155  and  _156
REMARK   71  A    between atoms: _159  and  _161
REMARK   72  A    between atoms: _161  and  _162
REMARK   73  A    between atoms: _161  and  _164
REMARK   74  A    between atoms: _164  and  _165
REMARK   75  A    between atoms: _165  and  _166
REMARK   76  A    between atoms: _166  and  _167
REMARK   77  A    between atoms: _176  and  _178
REMARK   78  A    between atoms: _178  and  _179
REMARK   79  A    between atoms: _178  and  _181
REMARK   80  A    between atoms: _181  and  _182
REMARK   81  A    between atoms: _187  and  _188
REMARK   82  A    between atoms: _190  and  _192
REMARK   83  A    between atoms: _192  and  _193
REMARK   84  A    between atoms: _192  and  _195
REMARK   85  A    between atoms: _195  and  _196
REMARK   86  A    between atoms: _196  and  _197
REMARK   87  A    between atoms: _199  and  _201
REMARK   88  A    between atoms: _201  and  _202
REMARK   89  A    between atoms: _201  and  _204
REMARK   90  A    between atoms: _207  and  _209
REMARK   91  A    between atoms: _209  and  _210
REMARK   92  A    between atoms: _209  and  _212
REMARK   93  A    between atoms: _212  and  _213
REMARK   94  A    between atoms: _218  and  _220
REMARK   95  A    between atoms: _220  and  _221
REMARK   96  A    between atoms: _220  and  _223
REMARK   97  A    between atoms: _223  and  _224
REMARK   98  A    between atoms: _224  and  _225
REMARK   99  A    between atoms: _225  and  _226
REMARK  100  A    between atoms: _226  and  _227
REMARK  101  A    between atoms: _231  and  _233
REMARK  102  A    between atoms: _233  and  _234
REMARK  103  A    between atoms: _233  and  _236
REMARK  104  A    between atoms: _236  and  _237
REMARK  105  A    between atoms: _240  and  _242
REMARK  106  A    between atoms: _242  and  _243
REMARK  107  A    between atoms: _245  and  _247
REMARK  108  A    between atoms: _247  and  _248
REMARK  109  A    between atoms: _250  and  _252
REMARK  110  A    between atoms: _252  and  _253
REMARK  111  A    between atoms: _252  and  _255
REMARK  112  A    between atoms: _255  and  _256
REMARK  113  A    between atoms: _259  and  _261
REMARK  114  A    between atoms: _261  and  _262
REMARK  115  A    between atoms: _261  and  _264
REMARK  116  A    between atoms: _264  and  _265
REMARK  117  A    between atoms: _271  and  _273
REMARK  118  A    between atoms: _273  and  _274
REMARK  119  A    between atoms: _276  and  _278
REMARK  120  A    between atoms: _278  and  _279
REMARK  121  A    between atoms: _278  and  _281
REMARK  122  A    between atoms: _281  and  _282
REMARK  123  A    between atoms: _287  and  _288
REMARK  124  A    between atoms: _290  and  _292
REMARK  125  A    between atoms: _292  and  _293
REMARK  126  A    between atoms: _292  and  _295
REMARK  127  A    between atoms: _295  and  _296
REMARK  128  A    between atoms: _296  and  _297
REMARK  129  A    between atoms: _302  and  _304
REMARK  130  A    between atoms: _304  and  _305
REMARK  131  A    between atoms: _304  and  _307
REMARK  132  A    between atoms: _307  and  _308
REMARK  133  A    between atoms: _311  and  _313
REMARK  134  A    between atoms: _313  and  _314
REMARK  135  A    between atoms: _313  and  _316
REMARK  136  A    between atoms: _316  and  _317
REMARK  137  A    between atoms: _320  and  _322
REMARK  138  A    between atoms: _322  and  _323
REMARK  139  A    between atoms: _322  and  _325
REMARK  140  A    between atoms: _325  and  _326
REMARK  141  A    between atoms: _331  and  _333
REMARK  142  A    between atoms: _333  and  _334
REMARK  143  A    between atoms: _333  and  _336
REMARK  144  A    between atoms: _336  and  _337
REMARK  145  A    between atoms: _340  and  _342
REMARK  146  A    between atoms: _342  and  _343
REMARK  147  A    between atoms: _342  and  _345
REMARK  148  A    between atoms: _345  and  _346
REMARK  149  A    between atoms: _346  and  _347
REMARK  150  A    between atoms: _350  and  _352
REMARK  151  A    between atoms: _352  and  _353
REMARK  152  A    between atoms: _352  and  _355
REMARK  153  A    between atoms: _355  and  _356
REMARK  154  A    between atoms: _356  and  _357
REMARK  155  A    between atoms: _357  and  _358
REMARK  156  A    between atoms: _358  and  _359
REMARK  157  A    between atoms: _363  and  _365
REMARK  158  A    between atoms: _365  and  _366
REMARK  159  A    between atoms: _365  and  _368
REMARK  160  A    between atoms: _368  and  _369
REMARK                            x       y       z     vdW  Elec       q    Type
REMARK                         _______ _______ _______ _____ _____    ______ ____
ROOT
ATOM      1  CB  ASN A   1      26.812  46.089  -3.175  0.00  0.00    +0.110 C 
ENDROOT
BRANCH   1   2
ATOM      2  CG  ASN A   1      26.702  44.621  -2.903  0.00  0.00    +0.221 C 
ATOM      3  ND2 ASN A   1      27.747  44.078  -2.316  0.00  0.00    -0.329 N 
ATOM      4 HD21 ASN A   1      28.565  44.668  -2.061  0.00  0.00    +0.145 HD
ATOM      5 HD22 ASN A   1      27.755  43.059  -2.107  0.00  0.00    +0.145 HD
ATOM      6  OD1 ASN A   1      25.704  43.955  -3.225  0.00  0.00    -0.275 OA
ENDBRANCH   1   2
BRANCH   1   7
ATOM      7  CA  ASN A   1      27.564  46.391  -4.471  0.00  0.00    +0.142 C 
BRANCH   7   8
ATOM      8  N   ASN A   1      27.915  47.780  -4.519  0.00  0.00    -0.239 NA
ATOM      9  H   ASN A   1      27.621  48.408  -3.744  0.00  0.00    +0.142 HD
ENDBRANCH   7   8
BRANCH   7  10
ATOM     10  C   ASN A   1      26.753  46.025  -5.710  0.00  0.00    +0.225 C 
ATOM     11  O   ASN A   1      26.938  44.961  -6.245  0.00  0.00    -0.287 OA
ENDBRANCH   7  10
ENDBRANCH   1   7
TORSDOF 4
REMARK  Name = ../refined-set-2016/2e91/2e91_pocket.pdb
REMARK  160 active torsions:
REMARK  status: ('A' for Active; 'I' for Inactive)
REMARK    1  A    between atoms: _1  and  _3
REMARK    2  A    between atoms: _3  and  _4
REMARK    3  A    between atoms: _3  and  _6
REMARK    4  A    between atoms: _6  and  _7
REMARK    5  A    between atoms: _12  and  _14
REMARK    6  A    between atoms: _14  and  _15
REMARK    7  A    between atoms: _14  and  _17
REMARK    8  A    between atoms: _17  and  _18
REMARK    9  A    between atoms: _20  and  _22
REMARK   10  A    between atoms: _22  and  _23
REMARK   11  A    between atoms: _22  and  _25
REMARK   12  A    between atoms: _25  and  _26
REMARK   13  A    between atoms: _29  and  _31
REMARK   14  A    between atoms: _31  and  _32
REMARK   15  A    between atoms: _31  and  _34
REMARK   16  A    between atoms: _34  and  _35
REMARK   17  A    between atoms: _38  and  _40
REMARK   18  A    between atoms: _40  and  _41
REMARK   19  A    between atoms: _40  and  _43
REMARK   20  A    between atoms: _43  and  _44
REMARK   21  A    between atoms: _44  and  _45
REMARK   22  A    between atoms: _44  and  _46
REMARK   23  A    between atoms: _45  and  MG_371
REMARK   24  A    between atoms: _46  and  MG_372
REMARK   25  A    between atoms: _47  and  _49
REMARK   26  A    between atoms: _49  and  _50
REMARK   27  A    between atoms: _49  and  _52
REMARK   28  A    between atoms: _52  and  _53
REMARK   29  A    between atoms: _56  and  _58
REMARK   30  A    between atoms: _58  and  _59
REMARK   31  A    between atoms: _58  and  _61
REMARK   32  A    between atoms: _61  and  _62
REMARK   33  A    between atoms: _62  and  _63
REMARK   34  A    between atoms: _66  and  _68
REMARK   35  A    between atoms: _68  and  _69
REMARK   36  A    between atoms: _68  and  _71
REMARK   37  A    between atoms: _71  and  _72
REMARK   38  A    between atoms: _75  and  _77
REMARK   39  A    between atoms: _77  and  _78
REMARK   40  A    between atoms: _81  and  _83
REMARK   41  A    between atoms: _83  and  _84
REMARK   42  A    between atoms: _83  and  _86
REMARK   43  A    between atoms: _86  and  _87
REMARK   44  A    between atoms: _90  and  _92
REMARK   45  A    between atoms: _92  and  _93
REMARK   46  A    between atoms: _92  and  _95
REMARK   47  A    between atoms: _95  and  _96
REMARK   48  A    between atoms: _96  and  _97
REMARK   49  A    between atoms: _97  and  _98
REMARK   50  A    between atoms: _107  and  _109
REMARK   51  A    between atoms: _109  and  _110
REMARK   52  A    between atoms: _109  and  _112
REMARK   53  A    between atoms: _112  and  _113
REMARK   54  A    between atoms: _113  and  _114
REMARK   55  A    between atoms: _114  and  _115
REMARK   56  A    between atoms: _124  and  _126
REMARK   57  A    between atoms: _126  and  _127
REMARK   58  A    between atoms: _126  and  _129
REMARK   59  A    between atoms: _129  and  _130
REMARK   60  A    between atoms: _133  and  _135
REMARK   61  A    between atoms: _135  and  _136
REMARK   62  A    between atoms: _138  and  _140
REMARK   63  A    between atoms: _140  and  _141
REMARK   64  A    between atoms: _140  and  _143
REMARK   65  A    between atoms: _143  and  _144
REMARK   66  A    between atoms: _144  and  _145
REMARK   67  A    between atoms: _150  and  _152
REMARK   68  A    between atoms: _152  and  _153
REMARK   69  A    between atoms: _152  and  _155
REMARK   70  A    between atoms: _155  and  _156
REMARK   71  A    between atoms: _159  and  _161
REMARK   72  A    between atoms: _161  and  _162
REMARK   73  A    between atoms: _161  and  _164
REMARK   74  A    between atoms: _164  and  _165
REMARK   75  A    between atoms: _165  and  _166
REMARK   76  A    between atoms: _166  and  _167
REMARK   77  A    between atoms: _176  and  _178
REMARK   78  A    between atoms: _178  and  _179
REMARK   79  A    between atoms: _178  and  _181
REMARK   80  A    between atoms: _181  and  _182
REMARK   81  A    between atoms: _187  and  _188
REMARK   82  A    between atoms: _190  and  _192
REMARK   83  A    between atoms: _192  and  _193
REMARK   84  A    between atoms: _192  and  _195
REMARK   85  A    between atoms: _195  and  _196
REMARK   86  A    between atoms: _196  and  _197
REMARK   87  A    between atoms: _199  and  _201
REMARK   88  A    between atoms: _201  and  _202
REMARK   89  A    between atoms: _201  and  _204
REMARK   90  A    between atoms: _207  and  _209
REMARK   91  A    between atoms: _209  and  _210
REMARK   92  A    between atoms: _209  and  _212
REMARK   93  A    between atoms: _212  and  _213
REMARK   94  A    between atoms: _218  and  _220
REMARK   95  A    between atoms: _220  and  _221
REMARK   96  A    between atoms: _220  and  _223
REMARK   97  A    between atoms: _223  and  _224
REMARK   98  A    between atoms: _224  and  _225
REMARK   99  A    between atoms: _225  and  _226
REMARK  100  A    between atoms: _226  and  _227
REMARK  101  A    between atoms: _231  and  _233
REMARK  102  A    between atoms: _233  and  _234
REMARK  103  A    between atoms: _233  and  _236
REMARK  104  A    between atoms: _236  and  _237
REMARK  105  A    between atoms: _240  and  _242
REMARK  106  A    between atoms: _242  and  _243
REMARK  107  A    between atoms: _245  and  _247
REMARK  108  A    between atoms: _247  and  _248
REMARK  109  A    between atoms: _250  and  _252
REMARK  110  A    between atoms: _252  and  _253
REMARK  111  A    between atoms: _252  and  _255
REMARK  112  A    between atoms: _255  and  _256
REMARK  113  A    between atoms: _259  and  _261
REMARK  114  A    between atoms: _261  and  _262
REMARK  115  A    between atoms: _261  and  _264
REMARK  116  A    between atoms: _264  and  _265
REMARK  117  A    between atoms: _271  and  _273
REMARK  118  A    between atoms: _273  and  _274
REMARK  119  A    between atoms: _276  and  _278
REMARK  120  A    between atoms: _278  and  _279
REMARK  121  A    between atoms: _278  and  _281
REMARK  122  A    between atoms: _281  and  _282
REMARK  123  A    between atoms: _287  and  _288
REMARK  124  A    between atoms: _290  and  _292
REMARK  125  A    between atoms: _292  and  _293
REMARK  126  A    between atoms: _292  and  _295
REMARK  127  A    between atoms: _295  and  _296
REMARK  128  A    between atoms: _296  and  _297
REMARK  129  A    between atoms: _302  and  _304
REMARK  130  A    between atoms: _304  and  _305
REMARK  131  A    between atoms: _304  and  _307
REMARK  132  A    between atoms: _307  and  _308
REMARK  133  A    between atoms: _311  and  _313
REMARK  134  A    between atoms: _313  and  _314
REMARK  135  A    between atoms: _313  and  _316
REMARK  136  A    between atoms: _316  and  _317
REMARK  137  A    between atoms: _320  and  _322
REMARK  138  A    between atoms: _322  and  _323
REMARK  139  A    between atoms: _322  and  _325
REMARK  140  A    between atoms: _325  and  _326
REMARK  141  A    between atoms: _331  and  _333
REMARK  142  A    between atoms: _333  and  _334
REMARK  143  A    between atoms: _333  and  _336
REMARK  144  A    between atoms: _336  and  _337
REMARK  145  A    between atoms: _340  and  _342
REMARK  146  A    between atoms: _342  and  _343
REMARK  147  A    between atoms: _342  and  _345
REMARK  148  A    between atoms: _345  and  _346
REMARK  149  A    between atoms: _346  and  _347
REMARK  150  A    between atoms: _350  and  _352
REMARK  151  A    between atoms: _352  and  _353
REMARK  152  A    between atoms: _352  and  _355
REMARK  153  A    between atoms: _355  and  _356
REMARK  154  A    between atoms: _356  and  _357
REMARK  155  A    between atoms: _357  and  _358
REMARK  156  A    between atoms: _358  and  _359
REMARK  157  A    between atoms: _363  and  _365
REMARK  158  A    between atoms: _365  and  _366
REMARK  159  A    between atoms: _365  and  _368
REMARK  160  A    between atoms: _368  and  _369
REMARK                            x       y       z     vdW  Elec       q    Type
REMARK                         _______ _______ _______ _____ _____    ______ ____
ROOT
ATOM      1  CA  ASP A   1      23.311  42.325  -1.087  0.00  0.00    +0.144 C 
ENDROOT
BRANCH   1   2
ATOM      2  N   ASP A   1      24.353  41.689  -1.885  0.00  0.00    -0.239 NA
ATOM      3  H   ASP A   1      24.964  42.266  -2.497  0.00  0.00    +0.142 HD
ENDBRANCH   1   2
BRANCH   1   4
ATOM      4  C   ASP A   1      21.952  41.816  -1.594  0.00  0.00    +0.225 C 
ATOM      5  O   ASP A   1      21.044  41.727  -0.801  0.00  0.00    -0.287 OA
ENDBRANCH   1   4
BRANCH   1   6
ATOM      6  CB  ASP A   1      23.321  43.860  -1.199  0.00  0.00    +0.139 C 
BRANCH   6   7
ATOM      7  CG  ASP A   1      24.420  44.497  -0.385  0.00  0.00    +0.367 C 
ATOM      8  OD2 ASP A   1      24.995  43.821   0.491  0.00  0.00    -0.246 OA
ATOM      9  OD1 ASP A   1      24.705  45.678  -0.621  0.00  0.00    -0.246 OA
ENDBRANCH   6   7
ENDBRANCH   1   6
TORSDOF 4
REMARK  Name = ../refined-set-2016/2e91/2e91_pocket.pdb
REMARK  160 active torsions:
REMARK  status: ('A' for Active; 'I' for Inactive)
REMARK    1  A    between atoms: _1  and  _3
REMARK    2  A    between atoms: _3  and  _4
REMARK    3  A    between atoms: _3  and  _6
REMARK    4  A    between atoms: _6  and  _7
REMARK    5  A    between atoms: _12  and  _14
REMARK    6  A    between atoms: _14  and  _15
REMARK    7  A    between atoms: _14  and  _17
REMARK    8  A    between atoms: _17  and  _18
REMARK    9  A    between atoms: _20  and  _22
REMARK   10  A    between atoms: _22  and  _23
REMARK   11  A    between atoms: _22  and  _25
REMARK   12  A    between atoms: _25  and  _26
REMARK   13  A    between atoms: _29  and  _31
REMARK   14  A    between atoms: _31  and  _32
REMARK   15  A    between atoms: _31  and  _34
REMARK   16  A    between atoms: _34  and  _35
REMARK   17  A    between atoms: _38  and  _40
REMARK   18  A    between atoms: _40  and  _41
REMARK   19  A    between atoms: _40  and  _43
REMARK   20  A    between atoms: _43  and  _44
REMARK   21  A    between atoms: _44  and  _45
REMARK   22  A    between atoms: _44  and  _46
REMARK   23  A    between atoms: _45  and  MG_371
REMARK   24  A    between atoms: _46  and  MG_372
REMARK   25  A    between atoms: _47  and  _49
REMARK   26  A    between atoms: _49  and  _50
REMARK   27  A    between atoms: _49  and  _52
REMARK   28  A    between atoms: _52  and  _53
REMARK   29  A    between atoms: _56  and  _58
REMARK   30  A    between atoms: _58  and  _59
REMARK   31  A    between atoms: _58  and  _61
REMARK   32  A    between atoms: _61  and  _62
REMARK   33  A    between atoms: _62  and  _63
REMARK   34  A    between atoms: _66  and  _68
REMARK   35  A    between atoms: _68  and  _69
REMARK   36  A    between atoms: _68  and  _71
REMARK   37  A    between atoms: _71  and  _72
REMARK   38  A    between atoms: _75  and  _77
REMARK   39  A    between atoms: _77  and  _78
REMARK   40  A    between atoms: _81  and  _83
REMARK   41  A    between atoms: _83  and  _84
REMARK   42  A    between atoms: _83  and  _86
REMARK   43  A    between atoms: _86  and  _87
REMARK   44  A    between atoms: _90  and  _92
REMARK   45  A    between atoms: _92  and  _93
REMARK   46  A    between atoms: _92  and  _95
REMARK   47  A    between atoms: _95  and  _96
REMARK   48  A    between atoms: _96  and  _97
REMARK   49  A    between atoms: _97  and  _98
REMARK   50  A    between atoms: _107  and  _109
REMARK   51  A    between atoms: _109  and  _110
REMARK   52  A    between atoms: _109  and  _112
REMARK   53  A    between atoms: _112  and  _113
REMARK   54  A    between atoms: _113  and  _114
REMARK   55  A    between atoms: _114  and  _115
REMARK   56  A    between atoms: _124  and  _126
REMARK   57  A    between atoms: _126  and  _127
REMARK   58  A    between atoms: _126  and  _129
REMARK   59  A    between atoms: _129  and  _130
REMARK   60  A    between atoms: _133  and  _135
REMARK   61  A    between atoms: _135  and  _136
REMARK   62  A    between atoms: _138  and  _140
REMARK   63  A    between atoms: _140  and  _141
REMARK   64  A    between atoms: _140  and  _143
REMARK   65  A    between atoms: _143  and  _144
REMARK   66  A    between atoms: _144  and  _145
REMARK   67  A    between atoms: _150  and  _152
REMARK   68  A    between atoms: _152  and  _153
REMARK   69  A    between atoms: _152  and  _155
REMARK   70  A    between atoms: _155  and  _156
REMARK   71  A    between atoms: _159  and  _161
REMARK   72  A    between atoms: _161  and  _162
REMARK   73  A    between atoms: _161  and  _164
REMARK   74  A    between atoms: _164  and  _165
REMARK   75  A    between atoms: _165  and  _166
REMARK   76  A    between atoms: _166  and  _167
REMARK   77  A    between atoms: _176  and  _178
REMARK   78  A    between atoms: _178  and  _179
REMARK   79  A    between atoms: _178  and  _181
REMARK   80  A    between atoms: _181  and  _182
REMARK   81  A    between atoms: _187  and  _188
REMARK   82  A    between atoms: _190  and  _192
REMARK   83  A    between atoms: _192  and  _193
REMARK   84  A    between atoms: _192  and  _195
REMARK   85  A    between atoms: _195  and  _196
REMARK   86  A    between atoms: _196  and  _197
REMARK   87  A    between atoms: _199  and  _201
REMARK   88  A    between atoms: _201  and  _202
REMARK   89  A    between atoms: _201  and  _204
REMARK   90  A    between atoms: _207  and  _209
REMARK   91  A    between atoms: _209  and  _210
REMARK   92  A    between atoms: _209  and  _212
REMARK   93  A    between atoms: _212  and  _213
REMARK   94  A    between atoms: _218  and  _220
REMARK   95  A    between atoms: _220  and  _221
REMARK   96  A    between atoms: _220  and  _223
REMARK   97  A    between atoms: _223  and  _224
REMARK   98  A    between atoms: _224  and  _225
REMARK   99  A    between atoms: _225  and  _226
REMARK  100  A    between atoms: _226  and  _227
REMARK  101  A    between atoms: _231  and  _233
REMARK  102  A    between atoms: _233  and  _234
REMARK  103  A    between atoms: _233  and  _236
REMARK  104  A    between atoms: _236  and  _237
REMARK  105  A    between atoms: _240  and  _242
REMARK  106  A    between atoms: _242  and  _243
REMARK  107  A    between atoms: _245  and  _247
REMARK  108  A    between atoms: _247  and  _248
REMARK  109  A    between atoms: _250  and  _252
REMARK  110  A    between atoms: _252  and  _253
REMARK  111  A    between atoms: _252  and  _255
REMARK  112  A    between atoms: _255  and  _256
REMARK  113  A    between atoms: _259  and  _261
REMARK  114  A    between atoms: _261  and  _262
REMARK  115  A    between atoms: _261  and  _264
REMARK  116  A    between atoms: _264  and  _265
REMARK  117  A    between atoms: _271  and  _273
REMARK  118  A    between atoms: _273  and  _274
REMARK  119  A    between atoms: _276  and  _278
REMARK  120  A    between atoms: _278  and  _279
REMARK  121  A    between atoms: _278  and  _281
REMARK  122  A    between atoms: _281  and  _282
REMARK  123  A    between atoms: _287  and  _288
REMARK  124  A    between atoms: _290  and  _292
REMARK  125  A    between atoms: _292  and  _293
REMARK  126  A    between atoms: _292  and  _295
REMARK  127  A    between atoms: _295  and  _296
REMARK  128  A    between atoms: _296  and  _297
REMARK  129  A    between atoms: _302  and  _304
REMARK  130  A    between atoms: _304  and  _305
REMARK  131  A    between atoms: _304  and  _307
REMARK  132  A    between atoms: _307  and  _308
REMARK  133  A    between atoms: _311  and  _313
REMARK  134  A    between atoms: _313  and  _314
REMARK  135  A    between atoms: _313  and  _316
REMARK  136  A    between atoms: _316  and  _317
REMARK  137  A    between atoms: _320  and  _322
REMARK  138  A    between atoms: _322  and  _323
REMARK  139  A    between atoms: _322  and  _325
REMARK  140  A    between atoms: _325  and  _326
REMARK  141  A    between atoms: _331  and  _333
REMARK  142  A    between atoms: _333  and  _334
REMARK  143  A    between atoms: _333  and  _336
REMARK  144  A    between atoms: _336  and  _337
REMARK  145  A    between atoms: _340  and  _342
REMARK  146  A    between atoms: _342  and  _343
REMARK  147  A    between atoms: _342  and  _345
REMARK  148  A    between atoms: _345  and  _346
REMARK  149  A    between atoms: _346  and  _347
REMARK  150  A    between atoms: _350  and  _352
REMARK  151  A    between atoms: _352  and  _353
REMARK  152  A    between atoms: _352  and  _355
REMARK  153  A    between atoms: _355  and  _356
REMARK  154  A    between atoms: _356  and  _357
REMARK  155  A    between atoms: _357  and  _358
REMARK  156  A    between atoms: _358  and  _359
REMARK  157  A    between atoms: _363  and  _365
REMARK  158  A    between atoms: _365  and  _366
REMARK  159  A    between atoms: _365  and  _368
REMARK  160  A    between atoms: _368  and  _369
REMARK                            x       y       z     vdW  Elec       q    Type
REMARK                         _______ _______ _______ _____ _____    ______ ____
ROOT
ATOM      1  CA  GLU A   1      21.274  38.692   1.433  0.00  0.00    +0.134 C 
ENDROOT
BRANCH   1   2
ATOM      2  N   GLU A   1      21.532  38.510   0.005  0.00  0.00    -0.239 NA
ATOM      3  H   GLU A   1      22.171  39.164  -0.490  0.00  0.00    +0.142 HD
ENDBRANCH   1   2
BRANCH   1   4
ATOM      4  C   GLU A   1      19.832  39.201   1.662  0.00  0.00    +0.224 C 
ATOM      5  O   GLU A   1      19.238  38.856   2.662  0.00  0.00    -0.287 OA
ENDBRANCH   1   4
BRANCH   1   6
ATOM      6  CB  GLU A   1      22.284  39.679   2.048  0.00  0.00    +0.037 C 
BRANCH   6   7
ATOM      7  CG  GLU A   1      21.959  40.064   3.547  0.00  0.00    +0.116 C 
BRANCH   7   8
ATOM      8  CD  GLU A   1      22.755  41.293   4.063  0.00  0.00    +0.365 C 
ATOM      9  OE2 GLU A   1      22.300  41.942   5.048  0.00  0.00    -0.246 OA
ATOM     10  OE1 GLU A   1      23.832  41.598   3.494  0.00  0.00    -0.246 OA
ENDBRANCH   7   8
ENDBRANCH   6   7
ENDBRANCH   1   6
TORSDOF 5
REMARK  Name = ../refined-set-2016/2e91/2e91_pocket.pdb
REMARK  160 active torsions:
REMARK  status: ('A' for Active; 'I' for Inactive)
REMARK    1  A    between atoms: _1  and  _3
REMARK    2  A    between atoms: _3  and  _4
REMARK    3  A    between atoms: _3  and  _6
REMARK    4  A    between atoms: _6  and  _7
REMARK    5  A    between atoms: _12  and  _14
REMARK    6  A    between atoms: _14  and  _15
REMARK    7  A    between atoms: _14  and  _17
REMARK    8  A    between atoms: _17  and  _18
REMARK    9  A    between atoms: _20  and  _22
REMARK   10  A    between atoms: _22  and  _23
REMARK   11  A    between atoms: _22  and  _25
REMARK   12  A    between atoms: _25  and  _26
REMARK   13  A    between atoms: _29  and  _31
REMARK   14  A    between atoms: _31  and  _32
REMARK   15  A    between atoms: _31  and  _34
REMARK   16  A    between atoms: _34  and  _35
REMARK   17  A    between atoms: _38  and  _40
REMARK   18  A    between atoms: _40  and  _41
REMARK   19  A    between atoms: _40  and  _43
REMARK   20  A    between atoms: _43  and  _44
REMARK   21  A    between atoms: _44  and  _45
REMARK   22  A    between atoms: _44  and  _46
REMARK   23  A    between atoms: _45  and  MG_371
REMARK   24  A    between atoms: _46  and  MG_372
REMARK   25  A    between atoms: _47  and  _49
REMARK   26  A    between atoms: _49  and  _50
REMARK   27  A    between atoms: _49  and  _52
REMARK   28  A    between atoms: _52  and  _53
REMARK   29  A    between atoms: _56  and  _58
REMARK   30  A    between atoms: _58  and  _59
REMARK   31  A    between atoms: _58  and  _61
REMARK   32  A    between atoms: _61  and  _62
REMARK   33  A    between atoms: _62  and  _63
REMARK   34  A    between atoms: _66  and  _68
REMARK   35  A    between atoms: _68  and  _69
REMARK   36  A    between atoms: _68  and  _71
REMARK   37  A    between atoms: _71  and  _72
REMARK   38  A    between atoms: _75  and  _77
REMARK   39  A    between atoms: _77  and  _78
REMARK   40  A    between atoms: _81  and  _83
REMARK   41  A    between atoms: _83  and  _84
REMARK   42  A    between atoms: _83  and  _86
REMARK   43  A    between atoms: _86  and  _87
REMARK   44  A    between atoms: _90  and  _92
REMARK   45  A    between atoms: _92  and  _93
REMARK   46  A    between atoms: _92  and  _95
REMARK   47  A    between atoms: _95  and  _96
REMARK   48  A    between atoms: _96  and  _97
REMARK   49  A    between atoms: _97  and  _98
REMARK   50  A    between atoms: _107  and  _109
REMARK   51  A    between atoms: _109  and  _110
REMARK   52  A    between atoms: _109  and  _112
REMARK   53  A    between atoms: _112  and  _113
REMARK   54  A    between atoms: _113  and  _114
REMARK   55  A    between atoms: _114  and  _115
REMARK   56  A    between atoms: _124  and  _126
REMARK   57  A    between atoms: _126  and  _127
REMARK   58  A    between atoms: _126  and  _129
REMARK   59  A    between atoms: _129  and  _130
REMARK   60  A    between atoms: _133  and  _135
REMARK   61  A    between atoms: _135  and  _136
REMARK   62  A    between atoms: _138  and  _140
REMARK   63  A    between atoms: _140  and  _141
REMARK   64  A    between atoms: _140  and  _143
REMARK   65  A    between atoms: _143  and  _144
REMARK   66  A    between atoms: _144  and  _145
REMARK   67  A    between atoms: _150  and  _152
REMARK   68  A    between atoms: _152  and  _153
REMARK   69  A    between atoms: _152  and  _155
REMARK   70  A    between atoms: _155  and  _156
REMARK   71  A    between atoms: _159  and  _161
REMARK   72  A    between atoms: _161  and  _162
REMARK   73  A    between atoms: _161  and  _164
REMARK   74  A    between atoms: _164  and  _165
REMARK   75  A    between atoms: _165  and  _166
REMARK   76  A    between atoms: _166  and  _167
REMARK   77  A    between atoms: _176  and  _178
REMARK   78  A    between atoms: _178  and  _179
REMARK   79  A    between atoms: _178  and  _181
REMARK   80  A    between atoms: _181  and  _182
REMARK   81  A    between atoms: _187  and  _188
REMARK   82  A    between atoms: _190  and  _192
REMARK   83  A    between atoms: _192  and  _193
REMARK   84  A    between atoms: _192  and  _195
REMARK   85  A    between atoms: _195  and  _196
REMARK   86  A    between atoms: _196  and  _197
REMARK   87  A    between atoms: _199  and  _201
REMARK   88  A    between atoms: _201  and  _202
REMARK   89  A    between atoms: _201  and  _204
REMARK   90  A    between atoms: _207  and  _209
REMARK   91  A    between atoms: _209  and  _210
REMARK   92  A    between atoms: _209  and  _212
REMARK   93  A    between atoms: _212  and  _213
REMARK   94  A    between atoms: _218  and  _220
REMARK   95  A    between atoms: _220  and  _221
REMARK   96  A    between atoms: _220  and  _223
REMARK   97  A    between atoms: _223  and  _224
REMARK   98  A    between atoms: _224  and  _225
REMARK   99  A    between atoms: _225  and  _226
REMARK  100  A    between atoms: _226  and  _227
REMARK  101  A    between atoms: _231  and  _233
REMARK  102  A    between atoms: _233  and  _234
REMARK  103  A    between atoms: _233  and  _236
REMARK  104  A    between atoms: _236  and  _237
REMARK  105  A    between atoms: _240  and  _242
REMARK  106  A    between atoms: _242  and  _243
REMARK  107  A    between atoms: _245  and  _247
REMARK  108  A    between atoms: _247  and  _248
REMARK  109  A    between atoms: _250  and  _252
REMARK  110  A    between atoms: _252  and  _253
REMARK  111  A    between atoms: _252  and  _255
REMARK  112  A    between atoms: _255  and  _256
REMARK  113  A    between atoms: _259  and  _261
REMARK  114  A    between atoms: _261  and  _262
REMARK  115  A    between atoms: _261  and  _264
REMARK  116  A    between atoms: _264  and  _265
REMARK  117  A    between atoms: _271  and  _273
REMARK  118  A    between atoms: _273  and  _274
REMARK  119  A    between atoms: _276  and  _278
REMARK  120  A    between atoms: _278  and  _279
REMARK  121  A    between atoms: _278  and  _281
REMARK  122  A    between atoms: _281  and  _282
REMARK  123  A    between atoms: _287  and  _288
REMARK  124  A    between atoms: _290  and  _292
REMARK  125  A    between atoms: _292  and  _293
REMARK  126  A    between atoms: _292  and  _295
REMARK  127  A    between atoms: _295  and  _296
REMARK  128  A    between atoms: _296  and  _297
REMARK  129  A    between atoms: _302  and  _304
REMARK  130  A    between atoms: _304  and  _305
REMARK  131  A    between atoms: _304  and  _307
REMARK  132  A    between atoms: _307  and  _308
REMARK  133  A    between atoms: _311  and  _313
REMARK  134  A    between atoms: _313  and  _314
REMARK  135  A    between atoms: _313  and  _316
REMARK  136  A    between atoms: _316  and  _317
REMARK  137  A    between atoms: _320  and  _322
REMARK  138  A    between atoms: _322  and  _323
REMARK  139  A    between atoms: _322  and  _325
REMARK  140  A    between atoms: _325  and  _326
REMARK  141  A    between atoms: _331  and  _333
REMARK  142  A    between atoms: _333  and  _334
REMARK  143  A    between atoms: _333  and  _336
REMARK  144  A    between atoms: _336  and  _337
REMARK  145  A    between atoms: _340  and  _342
REMARK  146  A    between atoms: _342  and  _343
REMARK  147  A    between atoms: _342  and  _345
REMARK  148  A    between atoms: _345  and  _346
REMARK  149  A    between atoms: _346  and  _347
REMARK  150  A    between atoms: _350  and  _352
REMARK  151  A    between atoms: _352  and  _353
REMARK  152  A    between atoms: _352  and  _355
REMARK  153  A    between atoms: _355  and  _356
REMARK  154  A    between atoms: _356  and  _357
REMARK  155  A    between atoms: _357  and  _358
REMARK  156  A    between atoms: _358  and  _359
REMARK  157  A    between atoms: _363  and  _365
REMARK  158  A    between atoms: _365  and  _366
REMARK  159  A    between atoms: _365  and  _368
REMARK  160  A    between atoms: _368  and  _369
REMARK                            x       y       z     vdW  Elec       q    Type
REMARK                         _______ _______ _______ _____ _____    ______ ____
ROOT
ATOM      1  CG  LYS A   1      21.179  45.526   2.557  0.00  0.00    -0.000 C 
ENDROOT
BRANCH   1   2
ATOM      2  CB  LYS A   1      20.758  44.127   2.278  0.00  0.00    +0.025 C 
BRANCH   2   3
ATOM      3  CA  LYS A   1      19.231  43.789   2.473  0.00  0.00    +0.133 C 
BRANCH   3   4
ATOM      4  N   LYS A   1      18.988  42.486   1.815  0.00  0.00    -0.239 NA
ATOM      5  H   LYS A   1      19.827  41.963   1.491  0.00  0.00    +0.142 HD
ENDBRANCH   3   4
BRANCH   3   6
ATOM      6  C   LYS A   1      18.359  44.930   1.910  0.00  0.00    +0.224 C 
ATOM      7  O   LYS A   1      18.243  45.072   0.671  0.00  0.00    -0.287 OA
ENDBRANCH   3   6
ENDBRANCH   2   3
ENDBRANCH   1   2
BRANCH   1   8
ATOM      8  CD  LYS A   1      22.598  45.825   2.123  0.00  0.00    -0.024 C 
BRANCH   8   9
ATOM      9  CE  LYS A   1      23.595  45.680   3.273  0.00  0.00    -0.086 C 
BRANCH   9  10
ATOM     10  NZ  LYS A   1      24.275  44.325   3.255  0.00  0.00    +0.380 N 
ATOM     11  HZ1 LYS A   1      24.944  44.263   4.049  0.00  0.00    -0.089 HD
ATOM     12  HZ2 LYS A   1      23.558  43.577   3.345  0.00  0.00    -0.089 HD
ATOM     13  HZ3 LYS A   1      24.788  44.208   2.358  0.00  0.00    -0.089 HD
ENDBRANCH   9  10
ENDBRANCH   8   9
ENDBRANCH   1   8
TORSDOF 7
REMARK  Name = ../refined-set-2016/2e91/2e91_pocket.pdb
REMARK  160 active torsions:
REMARK  status: ('A' for Active; 'I' for Inactive)
REMARK    1  A    between atoms: _1  and  _3
REMARK    2  A    between atoms: _3  and  _4
REMARK    3  A    between atoms: _3  and  _6
REMARK    4  A    between atoms: _6  and  _7
REMARK    5  A    between atoms: _12  and  _14
REMARK    6  A    between atoms: _14  and  _15
REMARK    7  A    between atoms: _14  and  _17
REMARK    8  A    between atoms: _17  and  _18
REMARK    9  A    between atoms: _20  and  _22
REMARK   10  A    between atoms: _22  and  _23
REMARK   11  A    between atoms: _22  and  _25
REMARK   12  A    between atoms: _25  and  _26
REMARK   13  A    between atoms: _29  and  _31
REMARK   14  A    between atoms: _31  and  _32
REMARK   15  A    between atoms: _31  and  _34
REMARK   16  A    between atoms: _34  and  _35
REMARK   17  A    between atoms: _38  and  _40
REMARK   18  A    between atoms: _40  and  _41
REMARK   19  A    between atoms: _40  and  _43
REMARK   20  A    between atoms: _43  and  _44
REMARK   21  A    between atoms: _44  and  _45
REMARK   22  A    between atoms: _44  and  _46
REMARK   23  A    between atoms: _45  and  MG_371
REMARK   24  A    between atoms: _46  and  MG_372
REMARK   25  A    between atoms: _47  and  _49
REMARK   26  A    between atoms: _49  and  _50
REMARK   27  A    between atoms: _49  and  _52
REMARK   28  A    between atoms: _52  and  _53
REMARK   29  A    between atoms: _56  and  _58
REMARK   30  A    between atoms: _58  and  _59
REMARK   31  A    between atoms: _58  and  _61
REMARK   32  A    between atoms: _61  and  _62
REMARK   33  A    between atoms: _62  and  _63
REMARK   34  A    between atoms: _66  and  _68
REMARK   35  A    between atoms: _68  and  _69
REMARK   36  A    between atoms: _68  and  _71
REMARK   37  A    between atoms: _71  and  _72
REMARK   38  A    between atoms: _75  and  _77
REMARK   39  A    between atoms: _77  and  _78
REMARK   40  A    between atoms: _81  and  _83
REMARK   41  A    between atoms: _83  and  _84
REMARK   42  A    between atoms: _83  and  _86
REMARK   43  A    between atoms: _86  and  _87
REMARK   44  A    between atoms: _90  and  _92
REMARK   45  A    between atoms: _92  and  _93
REMARK   46  A    between atoms: _92  and  _95
REMARK   47  A    between atoms: _95  and  _96
REMARK   48  A    between atoms: _96  and  _97
REMARK   49  A    between atoms: _97  and  _98
REMARK   50  A    between atoms: _107  and  _109
REMARK   51  A    between atoms: _109  and  _110
REMARK   52  A    between atoms: _109  and  _112
REMARK   53  A    between atoms: _112  and  _113
REMARK   54  A    between atoms: _113  and  _114
REMARK   55  A    between atoms: _114  and  _115
REMARK   56  A    between atoms: _124  and  _126
REMARK   57  A    between atoms: _126  and  _127
REMARK   58  A    between atoms: _126  and  _129
REMARK   59  A    between atoms: _129  and  _130
REMARK   60  A    between atoms: _133  and  _135
REMARK   61  A    between atoms: _135  and  _136
REMARK   62  A    between atoms: _138  and  _140
REMARK   63  A    between atoms: _140  and  _141
REMARK   64  A    between atoms: _140  and  _143
REMARK   65  A    between atoms: _143  and  _144
REMARK   66  A    between atoms: _144  and  _145
REMARK   67  A    between atoms: _150  and  _152
REMARK   68  A    between atoms: _152  and  _153
REMARK   69  A    between atoms: _152  and  _155
REMARK   70  A    between atoms: _155  and  _156
REMARK   71  A    between atoms: _159  and  _161
REMARK   72  A    between atoms: _161  and  _162
REMARK   73  A    between atoms: _161  and  _164
REMARK   74  A    between atoms: _164  and  _165
REMARK   75  A    between atoms: _165  and  _166
REMARK   76  A    between atoms: _166  and  _167
REMARK   77  A    between atoms: _176  and  _178
REMARK   78  A    between atoms: _178  and  _179
REMARK   79  A    between atoms: _178  and  _181
REMARK   80  A    between atoms: _181  and  _182
REMARK   81  A    between atoms: _187  and  _188
REMARK   82  A    between atoms: _190  and  _192
REMARK   83  A    between atoms: _192  and  _193
REMARK   84  A    between atoms: _192  and  _195
REMARK   85  A    between atoms: _195  and  _196
REMARK   86  A    between atoms: _196  and  _197
REMARK   87  A    between atoms: _199  and  _201
REMARK   88  A    between atoms: _201  and  _202
REMARK   89  A    between atoms: _201  and  _204
REMARK   90  A    between atoms: _207  and  _209
REMARK   91  A    between atoms: _209  and  _210
REMARK   92  A    between atoms: _209  and  _212
REMARK   93  A    between atoms: _212  and  _213
REMARK   94  A    between atoms: _218  and  _220
REMARK   95  A    between atoms: _220  and  _221
REMARK   96  A    between atoms: _220  and  _223
REMARK   97  A    between atoms: _223  and  _224
REMARK   98  A    between atoms: _224  and  _225
REMARK   99  A    between atoms: _225  and  _226
REMARK  100  A    between atoms: _226  and  _227
REMARK  101  A    between atoms: _231  and  _233
REMARK  102  A    between atoms: _233  and  _234
REMARK  103  A    between atoms: _233  and  _236
REMARK  104  A    between atoms: _236  and  _237
REMARK  105  A    between atoms: _240  and  _242
REMARK  106  A    between atoms: _242  and  _243
REMARK  107  A    between atoms: _245  and  _247
REMARK  108  A    between atoms: _247  and  _248
REMARK  109  A    between atoms: _250  and  _252
REMARK  110  A    between atoms: _252  and  _253
REMARK  111  A    between atoms: _252  and  _255
REMARK  112  A    between atoms: _255  and  _256
REMARK  113  A    between atoms: _259  and  _261
REMARK  114  A    between atoms: _261  and  _262
REMARK  115  A    between atoms: _261  and  _264
REMARK  116  A    between atoms: _264  and  _265
REMARK  117  A    between atoms: _271  and  _273
REMARK  118  A    between atoms: _273  and  _274
REMARK  119  A    between atoms: _276  and  _278
REMARK  120  A    between atoms: _278  and  _279
REMARK  121  A    between atoms: _278  and  _281
REMARK  122  A    between atoms: _281  and  _282
REMARK  123  A    between atoms: _287  and  _288
REMARK  124  A    between atoms: _290  and  _292
REMARK  125  A    between atoms: _292  and  _293
REMARK  126  A    between atoms: _292  and  _295
REMARK  127  A    between atoms: _295  and  _296
REMARK  128  A    between atoms: _296  and  _297
REMARK  129  A    between atoms: _302  and  _304
REMARK  130  A    between atoms: _304  and  _305
REMARK  131  A    between atoms: _304  and  _307
REMARK  132  A    between atoms: _307  and  _308
REMARK  133  A    between atoms: _311  and  _313
REMARK  134  A    between atoms: _313  and  _314
REMARK  135  A    between atoms: _313  and  _316
REMARK  136  A    between atoms: _316  and  _317
REMARK  137  A    between atoms: _320  and  _322
REMARK  138  A    between atoms: _322  and  _323
REMARK  139  A    between atoms: _322  and  _325
REMARK  140  A    between atoms: _325  and  _326
REMARK  141  A    between atoms: _331  and  _333
REMARK  142  A    between atoms: _333  and  _334
REMARK  143  A    between atoms: _333  and  _336
REMARK  144  A    between atoms: _336  and  _337
REMARK  145  A    between atoms: _340  and  _342
REMARK  146  A    between atoms: _342  and  _343
REMARK  147  A    between atoms: _342  and  _345
REMARK  148  A    between atoms: _345  and  _346
REMARK  149  A    between atoms: _346  and  _347
REMARK  150  A    between atoms: _350  and  _352
REMARK  151  A    between atoms: _352  and  _353
REMARK  152  A    between atoms: _352  and  _355
REMARK  153  A    between atoms: _355  and  _356
REMARK  154  A    between atoms: _356  and  _357
REMARK  155  A    between atoms: _357  and  _358
REMARK  156  A    between atoms: _358  and  _359
REMARK  157  A    between atoms: _363  and  _365
REMARK  158  A    between atoms: _365  and  _366
REMARK  159  A    between atoms: _365  and  _368
REMARK  160  A    between atoms: _368  and  _369
REMARK                            x       y       z     vdW  Elec       q    Type
REMARK                         _______ _______ _______ _____ _____    ______ ____
ROOT
ATOM      1  CA  SER A   1      19.892  48.794   0.735  0.00  0.00    +0.163 C 
ENDROOT
BRANCH   1   2
ATOM      2  N   SER A   1      18.834  47.850   1.064  0.00  0.00    -0.237 NA
ATOM      3  H   SER A   1      18.669  47.038   0.436  0.00  0.00    +0.142 HD
ENDBRANCH   1   2
BRANCH   1   4
ATOM      4  CB  SER A   1      19.306  50.165   0.356  0.00  0.00    +0.227 C 
ATOM      5  OG  SER A   1      18.084  50.277   0.084  0.00  0.00    -0.287 OA
ENDBRANCH   1   4
BRANCH   1   6
ATOM      6  C   SER A   1      20.701  48.226  -0.441  0.00  0.00    +0.162 C 
BRANCH   6   7
ATOM      7  O   SER A   1      19.891  48.108  -1.611  0.00  0.00    -0.380 OA
ATOM      8  H   SER A   1      20.435  47.741  -2.352  0.00  0.00    +0.211 HD
ENDBRANCH   6   7
ENDBRANCH   1   6
TORSDOF 4
REMARK  Name = ../refined-set-2016/2e91/2e91_pocket.pdb
REMARK  160 active torsions:
REMARK  status: ('A' for Active; 'I' for Inactive)
REMARK    1  A    between atoms: _1  and  _3
REMARK    2  A    between atoms: _3  and  _4
REMARK    3  A    between atoms: _3  and  _6
REMARK    4  A    between atoms: _6  and  _7
REMARK    5  A    between atoms: _12  and  _14
REMARK    6  A    between atoms: _14  and  _15
REMARK    7  A    between atoms: _14  and  _17
REMARK    8  A    between atoms: _17  and  _18
REMARK    9  A    between atoms: _20  and  _22
REMARK   10  A    between atoms: _22  and  _23
REMARK   11  A    between atoms: _22  and  _25
REMARK   12  A    between atoms: _25  and  _26
REMARK   13  A    between atoms: _29  and  _31
REMARK   14  A    between atoms: _31  and  _32
REMARK   15  A    between atoms: _31  and  _34
REMARK   16  A    between atoms: _34  and  _35
REMARK   17  A    between atoms: _38  and  _40
REMARK   18  A    between atoms: _40  and  _41
REMARK   19  A    between atoms: _40  and  _43
REMARK   20  A    between atoms: _43  and  _44
REMARK   21  A    between atoms: _44  and  _45
REMARK   22  A    between atoms: _44  and  _46
REMARK   23  A    between atoms: _45  and  MG_371
REMARK   24  A    between atoms: _46  and  MG_372
REMARK   25  A    between atoms: _47  and  _49
REMARK   26  A    between atoms: _49  and  _50
REMARK   27  A    between atoms: _49  and  _52
REMARK   28  A    between atoms: _52  and  _53
REMARK   29  A    between atoms: _56  and  _58
REMARK   30  A    between atoms: _58  and  _59
REMARK   31  A    between atoms: _58  and  _61
REMARK   32  A    between atoms: _61  and  _62
REMARK   33  A    between atoms: _62  and  _63
REMARK   34  A    between atoms: _66  and  _68
REMARK   35  A    between atoms: _68  and  _69
REMARK   36  A    between atoms: _68  and  _71
REMARK   37  A    between atoms: _71  and  _72
REMARK   38  A    between atoms: _75  and  _77
REMARK   39  A    between atoms: _77  and  _78
REMARK   40  A    between atoms: _81  and  _83
REMARK   41  A    between atoms: _83  and  _84
REMARK   42  A    between atoms: _83  and  _86
REMARK   43  A    between atoms: _86  and  _87
REMARK   44  A    between atoms: _90  and  _92
REMARK   45  A    between atoms: _92  and  _93
REMARK   46  A    between atoms: _92  and  _95
REMARK   47  A    between atoms: _95  and  _96
REMARK   48  A    between atoms: _96  and  _97
REMARK   49  A    between atoms: _97  and  _98
REMARK   50  A    between atoms: _107  and  _109
REMARK   51  A    between atoms: _109  and  _110
REMARK   52  A    between atoms: _109  and  _112
REMARK   53  A    between atoms: _112  and  _113
REMARK   54  A    between atoms: _113  and  _114
REMARK   55  A    between atoms: _114  and  _115
REMARK   56  A    between atoms: _124  and  _126
REMARK   57  A    between atoms: _126  and  _127
REMARK   58  A    between atoms: _126  and  _129
REMARK   59  A    between atoms: _129  and  _130
REMARK   60  A    between atoms: _133  and  _135
REMARK   61  A    between atoms: _135  and  _136
REMARK   62  A    between atoms: _138  and  _140
REMARK   63  A    between atoms: _140  and  _141
REMARK   64  A    between atoms: _140  and  _143
REMARK   65  A    between atoms: _143  and  _144
REMARK   66  A    between atoms: _144  and  _145
REMARK   67  A    between atoms: _150  and  _152
REMARK   68  A    between atoms: _152  and  _153
REMARK   69  A    between atoms: _152  and  _155
REMARK   70  A    between atoms: _155  and  _156
REMARK   71  A    between atoms: _159  and  _161
REMARK   72  A    between atoms: _161  and  _162
REMARK   73  A    between atoms: _161  and  _164
REMARK   74  A    between atoms: _164  and  _165
REMARK   75  A    between atoms: _165  and  _166
REMARK   76  A    between atoms: _166  and  _167
REMARK   77  A    between atoms: _176  and  _178
REMARK   78  A    between atoms: _178  and  _179
REMARK   79  A    between atoms: _178  and  _181
REMARK   80  A    between atoms: _181  and  _182
REMARK   81  A    between atoms: _187  and  _188
REMARK   82  A    between atoms: _190  and  _192
REMARK   83  A    between atoms: _192  and  _193
REMARK   84  A    between atoms: _192  and  _195
REMARK   85  A    between atoms: _195  and  _196
REMARK   86  A    between atoms: _196  and  _197
REMARK   87  A    between atoms: _199  and  _201
REMARK   88  A    between atoms: _201  and  _202
REMARK   89  A    between atoms: _201  and  _204
REMARK   90  A    between atoms: _207  and  _209
REMARK   91  A    between atoms: _209  and  _210
REMARK   92  A    between atoms: _209  and  _212
REMARK   93  A    between atoms: _212  and  _213
REMARK   94  A    between atoms: _218  and  _220
REMARK   95  A    between atoms: _220  and  _221
REMARK   96  A    between atoms: _220  and  _223
REMARK   97  A    between atoms: _223  and  _224
REMARK   98  A    between atoms: _224  and  _225
REMARK   99  A    between atoms: _225  and  _226
REMARK  100  A    between atoms: _226  and  _227
REMARK  101  A    between atoms: _231  and  _233
REMARK  102  A    between atoms: _233  and  _234
REMARK  103  A    between atoms: _233  and  _236
REMARK  104  A    between atoms: _236  and  _237
REMARK  105  A    between atoms: _240  and  _242
REMARK  106  A    between atoms: _242  and  _243
REMARK  107  A    between atoms: _245  and  _247
REMARK  108  A    between atoms: _247  and  _248
REMARK  109  A    between atoms: _250  and  _252
REMARK  110  A    between atoms: _252  and  _253
REMARK  111  A    between atoms: _252  and  _255
REMARK  112  A    between atoms: _255  and  _256
REMARK  113  A    between atoms: _259  and  _261
REMARK  114  A    between atoms: _261  and  _262
REMARK  115  A    between atoms: _261  and  _264
REMARK  116  A    between atoms: _264  and  _265
REMARK  117  A    between atoms: _271  and  _273
REMARK  118  A    between atoms: _273  and  _274
REMARK  119  A    between atoms: _276  and  _278
REMARK  120  A    between atoms: _278  and  _279
REMARK  121  A    between atoms: _278  and  _281
REMARK  122  A    between atoms: _281  and  _282
REMARK  123  A    between atoms: _287  and  _288
REMARK  124  A    between atoms: _290  and  _292
REMARK  125  A    between atoms: _292  and  _293
REMARK  126  A    between atoms: _292  and  _295
REMARK  127  A    between atoms: _295  and  _296
REMARK  128  A    between atoms: _296  and  _297
REMARK  129  A    between atoms: _302  and  _304
REMARK  130  A    between atoms: _304  and  _305
REMARK  131  A    between atoms: _304  and  _307
REMARK  132  A    between atoms: _307  and  _308
REMARK  133  A    between atoms: _311  and  _313
REMARK  134  A    between atoms: _313  and  _314
REMARK  135  A    between atoms: _313  and  _316
REMARK  136  A    between atoms: _316  and  _317
REMARK  137  A    between atoms: _320  and  _322
REMARK  138  A    between atoms: _322  and  _323
REMARK  139  A    between atoms: _322  and  _325
REMARK  140  A    between atoms: _325  and  _326
REMARK  141  A    between atoms: _331  and  _333
REMARK  142  A    between atoms: _333  and  _334
REMARK  143  A    between atoms: _333  and  _336
REMARK  144  A    between atoms: _336  and  _337
REMARK  145  A    between atoms: _340  and  _342
REMARK  146  A    between atoms: _342  and  _343
REMARK  147  A    between atoms: _342  and  _345
REMARK  148  A    between atoms: _345  and  _346
REMARK  149  A    between atoms: _346  and  _347
REMARK  150  A    between atoms: _350  and  _352
REMARK  151  A    between atoms: _352  and  _353
REMARK  152  A    between atoms: _352  and  _355
REMARK  153  A    between atoms: _355  and  _356
REMARK  154  A    between atoms: _356  and  _357
REMARK  155  A    between atoms: _357  and  _358
REMARK  156  A    between atoms: _358  and  _359
REMARK  157  A    between atoms: _363  and  _365
REMARK  158  A    between atoms: _365  and  _366
REMARK  159  A    between atoms: _365  and  _368
REMARK  160  A    between atoms: _368  and  _369
REMARK                            x       y       z     vdW  Elec       q    Type
REMARK                         _______ _______ _______ _____ _____    ______ ____
ROOT
ATOM      1  O   HOH     1      32.394  46.991   6.203  0.00  0.00    +0.000 OA
ENDROOT
TORSDOF 0
REMARK  Name = ../refined-set-2016/2e91/2e91_pocket.pdb
REMARK  160 active torsions:
REMARK  status: ('A' for Active; 'I' for Inactive)
REMARK    1  A    between atoms: _1  and  _3
REMARK    2  A    between atoms: _3  and  _4
REMARK    3  A    between atoms: _3  and  _6
REMARK    4  A    between atoms: _6  and  _7
REMARK    5  A    between atoms: _12  and  _14
REMARK    6  A    between atoms: _14  and  _15
REMARK    7  A    between atoms: _14  and  _17
REMARK    8  A    between atoms: _17  and  _18
REMARK    9  A    between atoms: _20  and  _22
REMARK   10  A    between atoms: _22  and  _23
REMARK   11  A    between atoms: _22  and  _25
REMARK   12  A    between atoms: _25  and  _26
REMARK   13  A    between atoms: _29  and  _31
REMARK   14  A    between atoms: _31  and  _32
REMARK   15  A    between atoms: _31  and  _34
REMARK   16  A    between atoms: _34  and  _35
REMARK   17  A    between atoms: _38  and  _40
REMARK   18  A    between atoms: _40  and  _41
REMARK   19  A    between atoms: _40  and  _43
REMARK   20  A    between atoms: _43  and  _44
REMARK   21  A    between atoms: _44  and  _45
REMARK   22  A    between atoms: _44  and  _46
REMARK   23  A    between atoms: _45  and  MG_371
REMARK   24  A    between atoms: _46  and  MG_372
REMARK   25  A    between atoms: _47  and  _49
REMARK   26  A    between atoms: _49  and  _50
REMARK   27  A    between atoms: _49  and  _52
REMARK   28  A    between atoms: _52  and  _53
REMARK   29  A    between atoms: _56  and  _58
REMARK   30  A    between atoms: _58  and  _59
REMARK   31  A    between atoms: _58  and  _61
REMARK   32  A    between atoms: _61  and  _62
REMARK   33  A    between atoms: _62  and  _63
REMARK   34  A    between atoms: _66  and  _68
REMARK   35  A    between atoms: _68  and  _69
REMARK   36  A    between atoms: _68  and  _71
REMARK   37  A    between atoms: _71  and  _72
REMARK   38  A    between atoms: _75  and  _77
REMARK   39  A    between atoms: _77  and  _78
REMARK   40  A    between atoms: _81  and  _83
REMARK   41  A    between atoms: _83  and  _84
REMARK   42  A    between atoms: _83  and  _86
REMARK   43  A    between atoms: _86  and  _87
REMARK   44  A    between atoms: _90  and  _92
REMARK   45  A    between atoms: _92  and  _93
REMARK   46  A    between atoms: _92  and  _95
REMARK   47  A    between atoms: _95  and  _96
REMARK   48  A    between atoms: _96  and  _97
REMARK   49  A    between atoms: _97  and  _98
REMARK   50  A    between atoms: _107  and  _109
REMARK   51  A    between atoms: _109  and  _110
REMARK   52  A    between atoms: _109  and  _112
REMARK   53  A    between atoms: _112  and  _113
REMARK   54  A    between atoms: _113  and  _114
REMARK   55  A    between atoms: _114  and  _115
REMARK   56  A    between atoms: _124  and  _126
REMARK   57  A    between atoms: _126  and  _127
REMARK   58  A    between atoms: _126  and  _129
REMARK   59  A    between atoms: _129  and  _130
REMARK   60  A    between atoms: _133  and  _135
REMARK   61  A    between atoms: _135  and  _136
REMARK   62  A    between atoms: _138  and  _140
REMARK   63  A    between atoms: _140  and  _141
REMARK   64  A    between atoms: _140  and  _143
REMARK   65  A    between atoms: _143  and  _144
REMARK   66  A    between atoms: _144  and  _145
REMARK   67  A    between atoms: _150  and  _152
REMARK   68  A    between atoms: _152  and  _153
REMARK   69  A    between atoms: _152  and  _155
REMARK   70  A    between atoms: _155  and  _156
REMARK   71  A    between atoms: _159  and  _161
REMARK   72  A    between atoms: _161  and  _162
REMARK   73  A    between atoms: _161  and  _164
REMARK   74  A    between atoms: _164  and  _165
REMARK   75  A    between atoms: _165  and  _166
REMARK   76  A    between atoms: _166  and  _167
REMARK   77  A    between atoms: _176  and  _178
REMARK   78  A    between atoms: _178  and  _179
REMARK   79  A    between atoms: _178  and  _181
REMARK   80  A    between atoms: _181  and  _182
REMARK   81  A    between atoms: _187  and  _188
REMARK   82  A    between atoms: _190  and  _192
REMARK   83  A    between atoms: _192  and  _193
REMARK   84  A    between atoms: _192  and  _195
REMARK   85  A    between atoms: _195  and  _196
REMARK   86  A    between atoms: _196  and  _197
REMARK   87  A    between atoms: _199  and  _201
REMARK   88  A    between atoms: _201  and  _202
REMARK   89  A    between atoms: _201  and  _204
REMARK   90  A    between atoms: _207  and  _209
REMARK   91  A    between atoms: _209  and  _210
REMARK   92  A    between atoms: _209  and  _212
REMARK   93  A    between atoms: _212  and  _213
REMARK   94  A    between atoms: _218  and  _220
REMARK   95  A    between atoms: _220  and  _221
REMARK   96  A    between atoms: _220  and  _223
REMARK   97  A    between atoms: _223  and  _224
REMARK   98  A    between atoms: _224  and  _225
REMARK   99  A    between atoms: _225  and  _226
REMARK  100  A    between atoms: _226  and  _227
REMARK  101  A    between atoms: _231  and  _233
REMARK  102  A    between atoms: _233  and  _234
REMARK  103  A    between atoms: _233  and  _236
REMARK  104  A    between atoms: _236  and  _237
REMARK  105  A    between atoms: _240  and  _242
REMARK  106  A    between atoms: _242  and  _243
REMARK  107  A    between atoms: _245  and  _247
REMARK  108  A    between atoms: _247  and  _248
REMARK  109  A    between atoms: _250  and  _252
REMARK  110  A    between atoms: _252  and  _253
REMARK  111  A    between atoms: _252  and  _255
REMARK  112  A    between atoms: _255  and  _256
REMARK  113  A    between atoms: _259  and  _261
REMARK  114  A    between atoms: _261  and  _262
REMARK  115  A    between atoms: _261  and  _264
REMARK  116  A    between atoms: _264  and  _265
REMARK  117  A    between atoms: _271  and  _273
REMARK  118  A    between atoms: _273  and  _274
REMARK  119  A    between atoms: _276  and  _278
REMARK  120  A    between atoms: _278  and  _279
REMARK  121  A    between atoms: _278  and  _281
REMARK  122  A    between atoms: _281  and  _282
REMARK  123  A    between atoms: _287  and  _288
REMARK  124  A    between atoms: _290  and  _292
REMARK  125  A    between atoms: _292  and  _293
REMARK  126  A    between atoms: _292  and  _295
REMARK  127  A    between atoms: _295  and  _296
REMARK  128  A    between atoms: _296  and  _297
REMARK  129  A    between atoms: _302  and  _304
REMARK  130  A    between atoms: _304  and  _305
REMARK  131  A    between atoms: _304  and  _307
REMARK  132  A    between atoms: _307  and  _308
REMARK  133  A    between atoms: _311  and  _313
REMARK  134  A    between atoms: _313  and  _314
REMARK  135  A    between atoms: _313  and  _316
REMARK  136  A    between atoms: _316  and  _317
REMARK  137  A    between atoms: _320  and  _322
REMARK  138  A    between atoms: _322  and  _323
REMARK  139  A    between atoms: _322  and  _325
REMARK  140  A    between atoms: _325  and  _326
REMARK  141  A    between atoms: _331  and  _333
REMARK  142  A    between atoms: _333  and  _334
REMARK  143  A    between atoms: _333  and  _336
REMARK  144  A    between atoms: _336  and  _337
REMARK  145  A    between atoms: _340  and  _342
REMARK  146  A    between atoms: _342  and  _343
REMARK  147  A    between atoms: _342  and  _345
REMARK  148  A    between atoms: _345  and  _346
REMARK  149  A    between atoms: _346  and  _347
REMARK  150  A    between atoms: _350  and  _352
REMARK  151  A    between atoms: _352  and  _353
REMARK  152  A    between atoms: _352  and  _355
REMARK  153  A    between atoms: _355  and  _356
REMARK  154  A    between atoms: _356  and  _357
REMARK  155  A    between atoms: _357  and  _358
REMARK  156  A    between atoms: _358  and  _359
REMARK  157  A    between atoms: _363  and  _365
REMARK  158  A    between atoms: _365  and  _366
REMARK  159  A    between atoms: _365  and  _368
REMARK  160  A    between atoms: _368  and  _369
REMARK                            x       y       z     vdW  Elec       q    Type
REMARK                         _______ _______ _______ _____ _____    ______ ____
ROOT
ATOM      1  O   HOH     1      29.854  49.631  12.281  0.00  0.00    +0.000 OA
ENDROOT
TORSDOF 0
REMARK  Name = ../refined-set-2016/2e91/2e91_pocket.pdb
REMARK  160 active torsions:
REMARK  status: ('A' for Active; 'I' for Inactive)
REMARK    1  A    between atoms: _1  and  _3
REMARK    2  A    between atoms: _3  and  _4
REMARK    3  A    between atoms: _3  and  _6
REMARK    4  A    between atoms: _6  and  _7
REMARK    5  A    between atoms: _12  and  _14
REMARK    6  A    between atoms: _14  and  _15
REMARK    7  A    between atoms: _14  and  _17
REMARK    8  A    between atoms: _17  and  _18
REMARK    9  A    between atoms: _20  and  _22
REMARK   10  A    between atoms: _22  and  _23
REMARK   11  A    between atoms: _22  and  _25
REMARK   12  A    between atoms: _25  and  _26
REMARK   13  A    between atoms: _29  and  _31
REMARK   14  A    between atoms: _31  and  _32
REMARK   15  A    between atoms: _31  and  _34
REMARK   16  A    between atoms: _34  and  _35
REMARK   17  A    between atoms: _38  and  _40
REMARK   18  A    between atoms: _40  and  _41
REMARK   19  A    between atoms: _40  and  _43
REMARK   20  A    between atoms: _43  and  _44
REMARK   21  A    between atoms: _44  and  _45
REMARK   22  A    between atoms: _44  and  _46
REMARK   23  A    between atoms: _45  and  MG_371
REMARK   24  A    between atoms: _46  and  MG_372
REMARK   25  A    between atoms: _47  and  _49
REMARK   26  A    between atoms: _49  and  _50
REMARK   27  A    between atoms: _49  and  _52
REMARK   28  A    between atoms: _52  and  _53
REMARK   29  A    between atoms: _56  and  _58
REMARK   30  A    between atoms: _58  and  _59
REMARK   31  A    between atoms: _58  and  _61
REMARK   32  A    between atoms: _61  and  _62
REMARK   33  A    between atoms: _62  and  _63
REMARK   34  A    between atoms: _66  and  _68
REMARK   35  A    between atoms: _68  and  _69
REMARK   36  A    between atoms: _68  and  _71
REMARK   37  A    between atoms: _71  and  _72
REMARK   38  A    between atoms: _75  and  _77
REMARK   39  A    between atoms: _77  and  _78
REMARK   40  A    between atoms: _81  and  _83
REMARK   41  A    between atoms: _83  and  _84
REMARK   42  A    between atoms: _83  and  _86
REMARK   43  A    between atoms: _86  and  _87
REMARK   44  A    between atoms: _90  and  _92
REMARK   45  A    between atoms: _92  and  _93
REMARK   46  A    between atoms: _92  and  _95
REMARK   47  A    between atoms: _95  and  _96
REMARK   48  A    between atoms: _96  and  _97
REMARK   49  A    between atoms: _97  and  _98
REMARK   50  A    between atoms: _107  and  _109
REMARK   51  A    between atoms: _109  and  _110
REMARK   52  A    between atoms: _109  and  _112
REMARK   53  A    between atoms: _112  and  _113
REMARK   54  A    between atoms: _113  and  _114
REMARK   55  A    between atoms: _114  and  _115
REMARK   56  A    between atoms: _124  and  _126
REMARK   57  A    between atoms: _126  and  _127
REMARK   58  A    between atoms: _126  and  _129
REMARK   59  A    between atoms: _129  and  _130
REMARK   60  A    between atoms: _133  and  _135
REMARK   61  A    between atoms: _135  and  _136
REMARK   62  A    between atoms: _138  and  _140
REMARK   63  A    between atoms: _140  and  _141
REMARK   64  A    between atoms: _140  and  _143
REMARK   65  A    between atoms: _143  and  _144
REMARK   66  A    between atoms: _144  and  _145
REMARK   67  A    between atoms: _150  and  _152
REMARK   68  A    between atoms: _152  and  _153
REMARK   69  A    between atoms: _152  and  _155
REMARK   70  A    between atoms: _155  and  _156
REMARK   71  A    between atoms: _159  and  _161
REMARK   72  A    between atoms: _161  and  _162
REMARK   73  A    between atoms: _161  and  _164
REMARK   74  A    between atoms: _164  and  _165
REMARK   75  A    between atoms: _165  and  _166
REMARK   76  A    between atoms: _166  and  _167
REMARK   77  A    between atoms: _176  and  _178
REMARK   78  A    between atoms: _178  and  _179
REMARK   79  A    between atoms: _178  and  _181
REMARK   80  A    between atoms: _181  and  _182
REMARK   81  A    between atoms: _187  and  _188
REMARK   82  A    between atoms: _190  and  _192
REMARK   83  A    between atoms: _192  and  _193
REMARK   84  A    between atoms: _192  and  _195
REMARK   85  A    between atoms: _195  and  _196
REMARK   86  A    between atoms: _196  and  _197
REMARK   87  A    between atoms: _199  and  _201
REMARK   88  A    between atoms: _201  and  _202
REMARK   89  A    between atoms: _201  and  _204
REMARK   90  A    between atoms: _207  and  _209
REMARK   91  A    between atoms: _209  and  _210
REMARK   92  A    between atoms: _209  and  _212
REMARK   93  A    between atoms: _212  and  _213
REMARK   94  A    between atoms: _218  and  _220
REMARK   95  A    between atoms: _220  and  _221
REMARK   96  A    between atoms: _220  and  _223
REMARK   97  A    between atoms: _223  and  _224
REMARK   98  A    between atoms: _224  and  _225
REMARK   99  A    between atoms: _225  and  _226
REMARK  100  A    between atoms: _226  and  _227
REMARK  101  A    between atoms: _231  and  _233
REMARK  102  A    between atoms: _233  and  _234
REMARK  103  A    between atoms: _233  and  _236
REMARK  104  A    between atoms: _236  and  _237
REMARK  105  A    between atoms: _240  and  _242
REMARK  106  A    between atoms: _242  and  _243
REMARK  107  A    between atoms: _245  and  _247
REMARK  108  A    between atoms: _247  and  _248
REMARK  109  A    between atoms: _250  and  _252
REMARK  110  A    between atoms: _252  and  _253
REMARK  111  A    between atoms: _252  and  _255
REMARK  112  A    between atoms: _255  and  _256
REMARK  113  A    between atoms: _259  and  _261
REMARK  114  A    between atoms: _261  and  _262
REMARK  115  A    between atoms: _261  and  _264
REMARK  116  A    between atoms: _264  and  _265
REMARK  117  A    between atoms: _271  and  _273
REMARK  118  A    between atoms: _273  and  _274
REMARK  119  A    between atoms: _276  and  _278
REMARK  120  A    between atoms: _278  and  _279
REMARK  121  A    between atoms: _278  and  _281
REMARK  122  A    between atoms: _281  and  _282
REMARK  123  A    between atoms: _287  and  _288
REMARK  124  A    between atoms: _290  and  _292
REMARK  125  A    between atoms: _292  and  _293
REMARK  126  A    between atoms: _292  and  _295
REMARK  127  A    between atoms: _295  and  _296
REMARK  128  A    between atoms: _296  and  _297
REMARK  129  A    between atoms: _302  and  _304
REMARK  130  A    between atoms: _304  and  _305
REMARK  131  A    between atoms: _304  and  _307
REMARK  132  A    between atoms: _307  and  _308
REMARK  133  A    between atoms: _311  and  _313
REMARK  134  A    between atoms: _313  and  _314
REMARK  135  A    between atoms: _313  and  _316
REMARK  136  A    between atoms: _316  and  _317
REMARK  137  A    between atoms: _320  and  _322
REMARK  138  A    between atoms: _322  and  _323
REMARK  139  A    between atoms: _322  and  _325
REMARK  140  A    between atoms: _325  and  _326
REMARK  141  A    between atoms: _331  and  _333
REMARK  142  A    between atoms: _333  and  _334
REMARK  143  A    between atoms: _333  and  _336
REMARK  144  A    between atoms: _336  and  _337
REMARK  145  A    between atoms: _340  and  _342
REMARK  146  A    between atoms: _342  and  _343
REMARK  147  A    between atoms: _342  and  _345
REMARK  148  A    between atoms: _345  and  _346
REMARK  149  A    between atoms: _346  and  _347
REMARK  150  A    between atoms: _350  and  _352
REMARK  151  A    between atoms: _352  and  _353
REMARK  152  A    between atoms: _352  and  _355
REMARK  153  A    between atoms: _355  and  _356
REMARK  154  A    between atoms: _356  and  _357
REMARK  155  A    between atoms: _357  and  _358
REMARK  156  A    between atoms: _358  and  _359
REMARK  157  A    between atoms: _363  and  _365
REMARK  158  A    between atoms: _365  and  _366
REMARK  159  A    between atoms: _365  and  _368
REMARK  160  A    between atoms: _368  and  _369
REMARK                            x       y       z     vdW  Elec       q    Type
REMARK                         _______ _______ _______ _____ _____    ______ ____
ROOT
ATOM      1  O   HOH     1      32.498  49.506   1.268  0.00  0.00    +0.000 OA
ENDROOT
TORSDOF 0
REMARK  Name = ../refined-set-2016/2e91/2e91_pocket.pdb
REMARK  160 active torsions:
REMARK  status: ('A' for Active; 'I' for Inactive)
REMARK    1  A    between atoms: _1  and  _3
REMARK    2  A    between atoms: _3  and  _4
REMARK    3  A    between atoms: _3  and  _6
REMARK    4  A    between atoms: _6  and  _7
REMARK    5  A    between atoms: _12  and  _14
REMARK    6  A    between atoms: _14  and  _15
REMARK    7  A    between atoms: _14  and  _17
REMARK    8  A    between atoms: _17  and  _18
REMARK    9  A    between atoms: _20  and  _22
REMARK   10  A    between atoms: _22  and  _23
REMARK   11  A    between atoms: _22  and  _25
REMARK   12  A    between atoms: _25  and  _26
REMARK   13  A    between atoms: _29  and  _31
REMARK   14  A    between atoms: _31  and  _32
REMARK   15  A    between atoms: _31  and  _34
REMARK   16  A    between atoms: _34  and  _35
REMARK   17  A    between atoms: _38  and  _40
REMARK   18  A    between atoms: _40  and  _41
REMARK   19  A    between atoms: _40  and  _43
REMARK   20  A    between atoms: _43  and  _44
REMARK   21  A    between atoms: _44  and  _45
REMARK   22  A    between atoms: _44  and  _46
REMARK   23  A    between atoms: _45  and  MG_371
REMARK   24  A    between atoms: _46  and  MG_372
REMARK   25  A    between atoms: _47  and  _49
REMARK   26  A    between atoms: _49  and  _50
REMARK   27  A    between atoms: _49  and  _52
REMARK   28  A    between atoms: _52  and  _53
REMARK   29  A    between atoms: _56  and  _58
REMARK   30  A    between atoms: _58  and  _59
REMARK   31  A    between atoms: _58  and  _61
REMARK   32  A    between atoms: _61  and  _62
REMARK   33  A    between atoms: _62  and  _63
REMARK   34  A    between atoms: _66  and  _68
REMARK   35  A    between atoms: _68  and  _69
REMARK   36  A    between atoms: _68  and  _71
REMARK   37  A    between atoms: _71  and  _72
REMARK   38  A    between atoms: _75  and  _77
REMARK   39  A    between atoms: _77  and  _78
REMARK   40  A    between atoms: _81  and  _83
REMARK   41  A    between atoms: _83  and  _84
REMARK   42  A    between atoms: _83  and  _86
REMARK   43  A    between atoms: _86  and  _87
REMARK   44  A    between atoms: _90  and  _92
REMARK   45  A    between atoms: _92  and  _93
REMARK   46  A    between atoms: _92  and  _95
REMARK   47  A    between atoms: _95  and  _96
REMARK   48  A    between atoms: _96  and  _97
REMARK   49  A    between atoms: _97  and  _98
REMARK   50  A    between atoms: _107  and  _109
REMARK   51  A    between atoms: _109  and  _110
REMARK   52  A    between atoms: _109  and  _112
REMARK   53  A    between atoms: _112  and  _113
REMARK   54  A    between atoms: _113  and  _114
REMARK   55  A    between atoms: _114  and  _115
REMARK   56  A    between atoms: _124  and  _126
REMARK   57  A    between atoms: _126  and  _127
REMARK   58  A    between atoms: _126  and  _129
REMARK   59  A    between atoms: _129  and  _130
REMARK   60  A    between atoms: _133  and  _135
REMARK   61  A    between atoms: _135  and  _136
REMARK   62  A    between atoms: _138  and  _140
REMARK   63  A    between atoms: _140  and  _141
REMARK   64  A    between atoms: _140  and  _143
REMARK   65  A    between atoms: _143  and  _144
REMARK   66  A    between atoms: _144  and  _145
REMARK   67  A    between atoms: _150  and  _152
REMARK   68  A    between atoms: _152  and  _153
REMARK   69  A    between atoms: _152  and  _155
REMARK   70  A    between atoms: _155  and  _156
REMARK   71  A    between atoms: _159  and  _161
REMARK   72  A    between atoms: _161  and  _162
REMARK   73  A    between atoms: _161  and  _164
REMARK   74  A    between atoms: _164  and  _165
REMARK   75  A    between atoms: _165  and  _166
REMARK   76  A    between atoms: _166  and  _167
REMARK   77  A    between atoms: _176  and  _178
REMARK   78  A    between atoms: _178  and  _179
REMARK   79  A    between atoms: _178  and  _181
REMARK   80  A    between atoms: _181  and  _182
REMARK   81  A    between atoms: _187  and  _188
REMARK   82  A    between atoms: _190  and  _192
REMARK   83  A    between atoms: _192  and  _193
REMARK   84  A    between atoms: _192  and  _195
REMARK   85  A    between atoms: _195  and  _196
REMARK   86  A    between atoms: _196  and  _197
REMARK   87  A    between atoms: _199  and  _201
REMARK   88  A    between atoms: _201  and  _202
REMARK   89  A    between atoms: _201  and  _204
REMARK   90  A    between atoms: _207  and  _209
REMARK   91  A    between atoms: _209  and  _210
REMARK   92  A    between atoms: _209  and  _212
REMARK   93  A    between atoms: _212  and  _213
REMARK   94  A    between atoms: _218  and  _220
REMARK   95  A    between atoms: _220  and  _221
REMARK   96  A    between atoms: _220  and  _223
REMARK   97  A    between atoms: _223  and  _224
REMARK   98  A    between atoms: _224  and  _225
REMARK   99  A    between atoms: _225  and  _226
REMARK  100  A    between atoms: _226  and  _227
REMARK  101  A    between atoms: _231  and  _233
REMARK  102  A    between atoms: _233  and  _234
REMARK  103  A    between atoms: _233  and  _236
REMARK  104  A    between atoms: _236  and  _237
REMARK  105  A    between atoms: _240  and  _242
REMARK  106  A    between atoms: _242  and  _243
REMARK  107  A    between atoms: _245  and  _247
REMARK  108  A    between atoms: _247  and  _248
REMARK  109  A    between atoms: _250  and  _252
REMARK  110  A    between atoms: _252  and  _253
REMARK  111  A    between atoms: _252  and  _255
REMARK  112  A    between atoms: _255  and  _256
REMARK  113  A    between atoms: _259  and  _261
REMARK  114  A    between atoms: _261  and  _262
REMARK  115  A    between atoms: _261  and  _264
REMARK  116  A    between atoms: _264  and  _265
REMARK  117  A    between atoms: _271  and  _273
REMARK  118  A    between atoms: _273  and  _274
REMARK  119  A    between atoms: _276  and  _278
REMARK  120  A    between atoms: _278  and  _279
REMARK  121  A    between atoms: _278  and  _281
REMARK  122  A    between atoms: _281  and  _282
REMARK  123  A    between atoms: _287  and  _288
REMARK  124  A    between atoms: _290  and  _292
REMARK  125  A    between atoms: _292  and  _293
REMARK  126  A    between atoms: _292  and  _295
REMARK  127  A    between atoms: _295  and  _296
REMARK  128  A    between atoms: _296  and  _297
REMARK  129  A    between atoms: _302  and  _304
REMARK  130  A    between atoms: _304  and  _305
REMARK  131  A    between atoms: _304  and  _307
REMARK  132  A    between atoms: _307  and  _308
REMARK  133  A    between atoms: _311  and  _313
REMARK  134  A    between atoms: _313  and  _314
REMARK  135  A    between atoms: _313  and  _316
REMARK  136  A    between atoms: _316  and  _317
REMARK  137  A    between atoms: _320  and  _322
REMARK  138  A    between atoms: _322  and  _323
REMARK  139  A    between atoms: _322  and  _325
REMARK  140  A    between atoms: _325  and  _326
REMARK  141  A    between atoms: _331  and  _333
REMARK  142  A    between atoms: _333  and  _334
REMARK  143  A    between atoms: _333  and  _336
REMARK  144  A    between atoms: _336  and  _337
REMARK  145  A    between atoms: _340  and  _342
REMARK  146  A    between atoms: _342  and  _343
REMARK  147  A    between atoms: _342  and  _345
REMARK  148  A    between atoms: _345  and  _346
REMARK  149  A    between atoms: _346  and  _347
REMARK  150  A    between atoms: _350  and  _352
REMARK  151  A    between atoms: _352  and  _353
REMARK  152  A    between atoms: _352  and  _355
REMARK  153  A    between atoms: _355  and  _356
REMARK  154  A    between atoms: _356  and  _357
REMARK  155  A    between atoms: _357  and  _358
REMARK  156  A    between atoms: _358  and  _359
REMARK  157  A    between atoms: _363  and  _365
REMARK  158  A    between atoms: _365  and  _366
REMARK  159  A    between atoms: _365  and  _368
REMARK  160  A    between atoms: _368  and  _369
REMARK                            x       y       z     vdW  Elec       q    Type
REMARK                         _______ _______ _______ _____ _____    ______ ____
ROOT
ATOM      1  O   HOH     1      22.890  49.249   4.138  0.00  0.00    +0.000 OA
ENDROOT
TORSDOF 0
REMARK  Name = ../refined-set-2016/2e91/2e91_pocket.pdb
REMARK  160 active torsions:
REMARK  status: ('A' for Active; 'I' for Inactive)
REMARK    1  A    between atoms: _1  and  _3
REMARK    2  A    between atoms: _3  and  _4
REMARK    3  A    between atoms: _3  and  _6
REMARK    4  A    between atoms: _6  and  _7
REMARK    5  A    between atoms: _12  and  _14
REMARK    6  A    between atoms: _14  and  _15
REMARK    7  A    between atoms: _14  and  _17
REMARK    8  A    between atoms: _17  and  _18
REMARK    9  A    between atoms: _20  and  _22
REMARK   10  A    between atoms: _22  and  _23
REMARK   11  A    between atoms: _22  and  _25
REMARK   12  A    between atoms: _25  and  _26
REMARK   13  A    between atoms: _29  and  _31
REMARK   14  A    between atoms: _31  and  _32
REMARK   15  A    between atoms: _31  and  _34
REMARK   16  A    between atoms: _34  and  _35
REMARK   17  A    between atoms: _38  and  _40
REMARK   18  A    between atoms: _40  and  _41
REMARK   19  A    between atoms: _40  and  _43
REMARK   20  A    between atoms: _43  and  _44
REMARK   21  A    between atoms: _44  and  _45
REMARK   22  A    between atoms: _44  and  _46
REMARK   23  A    between atoms: _45  and  MG_371
REMARK   24  A    between atoms: _46  and  MG_372
REMARK   25  A    between atoms: _47  and  _49
REMARK   26  A    between atoms: _49  and  _50
REMARK   27  A    between atoms: _49  and  _52
REMARK   28  A    between atoms: _52  and  _53
REMARK   29  A    between atoms: _56  and  _58
REMARK   30  A    between atoms: _58  and  _59
REMARK   31  A    between atoms: _58  and  _61
REMARK   32  A    between atoms: _61  and  _62
REMARK   33  A    between atoms: _62  and  _63
REMARK   34  A    between atoms: _66  and  _68
REMARK   35  A    between atoms: _68  and  _69
REMARK   36  A    between atoms: _68  and  _71
REMARK   37  A    between atoms: _71  and  _72
REMARK   38  A    between atoms: _75  and  _77
REMARK   39  A    between atoms: _77  and  _78
REMARK   40  A    between atoms: _81  and  _83
REMARK   41  A    between atoms: _83  and  _84
REMARK   42  A    between atoms: _83  and  _86
REMARK   43  A    between atoms: _86  and  _87
REMARK   44  A    between atoms: _90  and  _92
REMARK   45  A    between atoms: _92  and  _93
REMARK   46  A    between atoms: _92  and  _95
REMARK   47  A    between atoms: _95  and  _96
REMARK   48  A    between atoms: _96  and  _97
REMARK   49  A    between atoms: _97  and  _98
REMARK   50  A    between atoms: _107  and  _109
REMARK   51  A    between atoms: _109  and  _110
REMARK   52  A    between atoms: _109  and  _112
REMARK   53  A    between atoms: _112  and  _113
REMARK   54  A    between atoms: _113  and  _114
REMARK   55  A    between atoms: _114  and  _115
REMARK   56  A    between atoms: _124  and  _126
REMARK   57  A    between atoms: _126  and  _127
REMARK   58  A    between atoms: _126  and  _129
REMARK   59  A    between atoms: _129  and  _130
REMARK   60  A    between atoms: _133  and  _135
REMARK   61  A    between atoms: _135  and  _136
REMARK   62  A    between atoms: _138  and  _140
REMARK   63  A    between atoms: _140  and  _141
REMARK   64  A    between atoms: _140  and  _143
REMARK   65  A    between atoms: _143  and  _144
REMARK   66  A    between atoms: _144  and  _145
REMARK   67  A    between atoms: _150  and  _152
REMARK   68  A    between atoms: _152  and  _153
REMARK   69  A    between atoms: _152  and  _155
REMARK   70  A    between atoms: _155  and  _156
REMARK   71  A    between atoms: _159  and  _161
REMARK   72  A    between atoms: _161  and  _162
REMARK   73  A    between atoms: _161  and  _164
REMARK   74  A    between atoms: _164  and  _165
REMARK   75  A    between atoms: _165  and  _166
REMARK   76  A    between atoms: _166  and  _167
REMARK   77  A    between atoms: _176  and  _178
REMARK   78  A    between atoms: _178  and  _179
REMARK   79  A    between atoms: _178  and  _181
REMARK   80  A    between atoms: _181  and  _182
REMARK   81  A    between atoms: _187  and  _188
REMARK   82  A    between atoms: _190  and  _192
REMARK   83  A    between atoms: _192  and  _193
REMARK   84  A    between atoms: _192  and  _195
REMARK   85  A    between atoms: _195  and  _196
REMARK   86  A    between atoms: _196  and  _197
REMARK   87  A    between atoms: _199  and  _201
REMARK   88  A    between atoms: _201  and  _202
REMARK   89  A    between atoms: _201  and  _204
REMARK   90  A    between atoms: _207  and  _209
REMARK   91  A    between atoms: _209  and  _210
REMARK   92  A    between atoms: _209  and  _212
REMARK   93  A    between atoms: _212  and  _213
REMARK   94  A    between atoms: _218  and  _220
REMARK   95  A    between atoms: _220  and  _221
REMARK   96  A    between atoms: _220  and  _223
REMARK   97  A    between atoms: _223  and  _224
REMARK   98  A    between atoms: _224  and  _225
REMARK   99  A    between atoms: _225  and  _226
REMARK  100  A    between atoms: _226  and  _227
REMARK  101  A    between atoms: _231  and  _233
REMARK  102  A    between atoms: _233  and  _234
REMARK  103  A    between atoms: _233  and  _236
REMARK  104  A    between atoms: _236  and  _237
REMARK  105  A    between atoms: _240  and  _242
REMARK  106  A    between atoms: _242  and  _243
REMARK  107  A    between atoms: _245  and  _247
REMARK  108  A    between atoms: _247  and  _248
REMARK  109  A    between atoms: _250  and  _252
REMARK  110  A    between atoms: _252  and  _253
REMARK  111  A    between atoms: _252  and  _255
REMARK  112  A    between atoms: _255  and  _256
REMARK  113  A    between atoms: _259  and  _261
REMARK  114  A    between atoms: _261  and  _262
REMARK  115  A    between atoms: _261  and  _264
REMARK  116  A    between atoms: _264  and  _265
REMARK  117  A    between atoms: _271  and  _273
REMARK  118  A    between atoms: _273  and  _274
REMARK  119  A    between atoms: _276  and  _278
REMARK  120  A    between atoms: _278  and  _279
REMARK  121  A    between atoms: _278  and  _281
REMARK  122  A    between atoms: _281  and  _282
REMARK  123  A    between atoms: _287  and  _288
REMARK  124  A    between atoms: _290  and  _292
REMARK  125  A    between atoms: _292  and  _293
REMARK  126  A    between atoms: _292  and  _295
REMARK  127  A    between atoms: _295  and  _296
REMARK  128  A    between atoms: _296  and  _297
REMARK  129  A    between atoms: _302  and  _304
REMARK  130  A    between atoms: _304  and  _305
REMARK  131  A    between atoms: _304  and  _307
REMARK  132  A    between atoms: _307  and  _308
REMARK  133  A    between atoms: _311  and  _313
REMARK  134  A    between atoms: _313  and  _314
REMARK  135  A    between atoms: _313  and  _316
REMARK  136  A    between atoms: _316  and  _317
REMARK  137  A    between atoms: _320  and  _322
REMARK  138  A    between atoms: _322  and  _323
REMARK  139  A    between atoms: _322  and  _325
REMARK  140  A    between atoms: _325  and  _326
REMARK  141  A    between atoms: _331  and  _333
REMARK  142  A    between atoms: _333  and  _334
REMARK  143  A    between atoms: _333  and  _336
REMARK  144  A    between atoms: _336  and  _337
REMARK  145  A    between atoms: _340  and  _342
REMARK  146  A    between atoms: _342  and  _343
REMARK  147  A    between atoms: _342  and  _345
REMARK  148  A    between atoms: _345  and  _346
REMARK  149  A    between atoms: _346  and  _347
REMARK  150  A    between atoms: _350  and  _352
REMARK  151  A    between atoms: _352  and  _353
REMARK  152  A    between atoms: _352  and  _355
REMARK  153  A    between atoms: _355  and  _356
REMARK  154  A    between atoms: _356  and  _357
REMARK  155  A    between atoms: _357  and  _358
REMARK  156  A    between atoms: _358  and  _359
REMARK  157  A    between atoms: _363  and  _365
REMARK  158  A    between atoms: _365  and  _366
REMARK  159  A    between atoms: _365  and  _368
REMARK  160  A    between atoms: _368  and  _369
REMARK                            x       y       z     vdW  Elec       q    Type
REMARK                         _______ _______ _______ _____ _____    ______ ____
ROOT
ATOM      1  O   HOH     1      31.786  52.150   0.536  0.00  0.00    +0.000 OA
ENDROOT
TORSDOF 0
REMARK  Name = ../refined-set-2016/2e91/2e91_pocket.pdb
REMARK  160 active torsions:
REMARK  status: ('A' for Active; 'I' for Inactive)
REMARK    1  A    between atoms: _1  and  _3
REMARK    2  A    between atoms: _3  and  _4
REMARK    3  A    between atoms: _3  and  _6
REMARK    4  A    between atoms: _6  and  _7
REMARK    5  A    between atoms: _12  and  _14
REMARK    6  A    between atoms: _14  and  _15
REMARK    7  A    between atoms: _14  and  _17
REMARK    8  A    between atoms: _17  and  _18
REMARK    9  A    between atoms: _20  and  _22
REMARK   10  A    between atoms: _22  and  _23
REMARK   11  A    between atoms: _22  and  _25
REMARK   12  A    between atoms: _25  and  _26
REMARK   13  A    between atoms: _29  and  _31
REMARK   14  A    between atoms: _31  and  _32
REMARK   15  A    between atoms: _31  and  _34
REMARK   16  A    between atoms: _34  and  _35
REMARK   17  A    between atoms: _38  and  _40
REMARK   18  A    between atoms: _40  and  _41
REMARK   19  A    between atoms: _40  and  _43
REMARK   20  A    between atoms: _43  and  _44
REMARK   21  A    between atoms: _44  and  _45
REMARK   22  A    between atoms: _44  and  _46
REMARK   23  A    between atoms: _45  and  MG_371
REMARK   24  A    between atoms: _46  and  MG_372
REMARK   25  A    between atoms: _47  and  _49
REMARK   26  A    between atoms: _49  and  _50
REMARK   27  A    between atoms: _49  and  _52
REMARK   28  A    between atoms: _52  and  _53
REMARK   29  A    between atoms: _56  and  _58
REMARK   30  A    between atoms: _58  and  _59
REMARK   31  A    between atoms: _58  and  _61
REMARK   32  A    between atoms: _61  and  _62
REMARK   33  A    between atoms: _62  and  _63
REMARK   34  A    between atoms: _66  and  _68
REMARK   35  A    between atoms: _68  and  _69
REMARK   36  A    between atoms: _68  and  _71
REMARK   37  A    between atoms: _71  and  _72
REMARK   38  A    between atoms: _75  and  _77
REMARK   39  A    between atoms: _77  and  _78
REMARK   40  A    between atoms: _81  and  _83
REMARK   41  A    between atoms: _83  and  _84
REMARK   42  A    between atoms: _83  and  _86
REMARK   43  A    between atoms: _86  and  _87
REMARK   44  A    between atoms: _90  and  _92
REMARK   45  A    between atoms: _92  and  _93
REMARK   46  A    between atoms: _92  and  _95
REMARK   47  A    between atoms: _95  and  _96
REMARK   48  A    between atoms: _96  and  _97
REMARK   49  A    between atoms: _97  and  _98
REMARK   50  A    between atoms: _107  and  _109
REMARK   51  A    between atoms: _109  and  _110
REMARK   52  A    between atoms: _109  and  _112
REMARK   53  A    between atoms: _112  and  _113
REMARK   54  A    between atoms: _113  and  _114
REMARK   55  A    between atoms: _114  and  _115
REMARK   56  A    between atoms: _124  and  _126
REMARK   57  A    between atoms: _126  and  _127
REMARK   58  A    between atoms: _126  and  _129
REMARK   59  A    between atoms: _129  and  _130
REMARK   60  A    between atoms: _133  and  _135
REMARK   61  A    between atoms: _135  and  _136
REMARK   62  A    between atoms: _138  and  _140
REMARK   63  A    between atoms: _140  and  _141
REMARK   64  A    between atoms: _140  and  _143
REMARK   65  A    between atoms: _143  and  _144
REMARK   66  A    between atoms: _144  and  _145
REMARK   67  A    between atoms: _150  and  _152
REMARK   68  A    between atoms: _152  and  _153
REMARK   69  A    between atoms: _152  and  _155
REMARK   70  A    between atoms: _155  and  _156
REMARK   71  A    between atoms: _159  and  _161
REMARK   72  A    between atoms: _161  and  _162
REMARK   73  A    between atoms: _161  and  _164
REMARK   74  A    between atoms: _164  and  _165
REMARK   75  A    between atoms: _165  and  _166
REMARK   76  A    between atoms: _166  and  _167
REMARK   77  A    between atoms: _176  and  _178
REMARK   78  A    between atoms: _178  and  _179
REMARK   79  A    between atoms: _178  and  _181
REMARK   80  A    between atoms: _181  and  _182
REMARK   81  A    between atoms: _187  and  _188
REMARK   82  A    between atoms: _190  and  _192
REMARK   83  A    between atoms: _192  and  _193
REMARK   84  A    between atoms: _192  and  _195
REMARK   85  A    between atoms: _195  and  _196
REMARK   86  A    between atoms: _196  and  _197
REMARK   87  A    between atoms: _199  and  _201
REMARK   88  A    between atoms: _201  and  _202
REMARK   89  A    between atoms: _201  and  _204
REMARK   90  A    between atoms: _207  and  _209
REMARK   91  A    between atoms: _209  and  _210
REMARK   92  A    between atoms: _209  and  _212
REMARK   93  A    between atoms: _212  and  _213
REMARK   94  A    between atoms: _218  and  _220
REMARK   95  A    between atoms: _220  and  _221
REMARK   96  A    between atoms: _220  and  _223
REMARK   97  A    between atoms: _223  and  _224
REMARK   98  A    between atoms: _224  and  _225
REMARK   99  A    between atoms: _225  and  _226
REMARK  100  A    between atoms: _226  and  _227
REMARK  101  A    between atoms: _231  and  _233
REMARK  102  A    between atoms: _233  and  _234
REMARK  103  A    between atoms: _233  and  _236
REMARK  104  A    between atoms: _236  and  _237
REMARK  105  A    between atoms: _240  and  _242
REMARK  106  A    between atoms: _242  and  _243
REMARK  107  A    between atoms: _245  and  _247
REMARK  108  A    between atoms: _247  and  _248
REMARK  109  A    between atoms: _250  and  _252
REMARK  110  A    between atoms: _252  and  _253
REMARK  111  A    between atoms: _252  and  _255
REMARK  112  A    between atoms: _255  and  _256
REMARK  113  A    between atoms: _259  and  _261
REMARK  114  A    between atoms: _261  and  _262
REMARK  115  A    between atoms: _261  and  _264
REMARK  116  A    between atoms: _264  and  _265
REMARK  117  A    between atoms: _271  and  _273
REMARK  118  A    between atoms: _273  and  _274
REMARK  119  A    between atoms: _276  and  _278
REMARK  120  A    between atoms: _278  and  _279
REMARK  121  A    between atoms: _278  and  _281
REMARK  122  A    between atoms: _281  and  _282
REMARK  123  A    between atoms: _287  and  _288
REMARK  124  A    between atoms: _290  and  _292
REMARK  125  A    between atoms: _292  and  _293
REMARK  126  A    between atoms: _292  and  _295
REMARK  127  A    between atoms: _295  and  _296
REMARK  128  A    between atoms: _296  and  _297
REMARK  129  A    between atoms: _302  and  _304
REMARK  130  A    between atoms: _304  and  _305
REMARK  131  A    between atoms: _304  and  _307
REMARK  132  A    between atoms: _307  and  _308
REMARK  133  A    between atoms: _311  and  _313
REMARK  134  A    between atoms: _313  and  _314
REMARK  135  A    between atoms: _313  and  _316
REMARK  136  A    between atoms: _316  and  _317
REMARK  137  A    between atoms: _320  and  _322
REMARK  138  A    between atoms: _322  and  _323
REMARK  139  A    between atoms: _322  and  _325
REMARK  140  A    between atoms: _325  and  _326
REMARK  141  A    between atoms: _331  and  _333
REMARK  142  A    between atoms: _333  and  _334
REMARK  143  A    between atoms: _333  and  _336
REMARK  144  A    between atoms: _336  and  _337
REMARK  145  A    between atoms: _340  and  _342
REMARK  146  A    between atoms: _342  and  _343
REMARK  147  A    between atoms: _342  and  _345
REMARK  148  A    between atoms: _345  and  _346
REMARK  149  A    between atoms: _346  and  _347
REMARK  150  A    between atoms: _350  and  _352
REMARK  151  A    between atoms: _352  and  _353
REMARK  152  A    between atoms: _352  and  _355
REMARK  153  A    between atoms: _355  and  _356
REMARK  154  A    between atoms: _356  and  _357
REMARK  155  A    between atoms: _357  and  _358
REMARK  156  A    between atoms: _358  and  _359
REMARK  157  A    between atoms: _363  and  _365
REMARK  158  A    between atoms: _365  and  _366
REMARK  159  A    between atoms: _365  and  _368
REMARK  160  A    between atoms: _368  and  _369
REMARK                            x       y       z     vdW  Elec       q    Type
REMARK                         _______ _______ _______ _____ _____    ______ ____
ROOT
ATOM      1  O   HOH     1      31.629  46.078   2.422  0.00  0.00    +0.000 OA
ENDROOT
TORSDOF 0
REMARK  Name = ../refined-set-2016/2e91/2e91_pocket.pdb
REMARK  160 active torsions:
REMARK  status: ('A' for Active; 'I' for Inactive)
REMARK    1  A    between atoms: _1  and  _3
REMARK    2  A    between atoms: _3  and  _4
REMARK    3  A    between atoms: _3  and  _6
REMARK    4  A    between atoms: _6  and  _7
REMARK    5  A    between atoms: _12  and  _14
REMARK    6  A    between atoms: _14  and  _15
REMARK    7  A    between atoms: _14  and  _17
REMARK    8  A    between atoms: _17  and  _18
REMARK    9  A    between atoms: _20  and  _22
REMARK   10  A    between atoms: _22  and  _23
REMARK   11  A    between atoms: _22  and  _25
REMARK   12  A    between atoms: _25  and  _26
REMARK   13  A    between atoms: _29  and  _31
REMARK   14  A    between atoms: _31  and  _32
REMARK   15  A    between atoms: _31  and  _34
REMARK   16  A    between atoms: _34  and  _35
REMARK   17  A    between atoms: _38  and  _40
REMARK   18  A    between atoms: _40  and  _41
REMARK   19  A    between atoms: _40  and  _43
REMARK   20  A    between atoms: _43  and  _44
REMARK   21  A    between atoms: _44  and  _45
REMARK   22  A    between atoms: _44  and  _46
REMARK   23  A    between atoms: _45  and  MG_371
REMARK   24  A    between atoms: _46  and  MG_372
REMARK   25  A    between atoms: _47  and  _49
REMARK   26  A    between atoms: _49  and  _50
REMARK   27  A    between atoms: _49  and  _52
REMARK   28  A    between atoms: _52  and  _53
REMARK   29  A    between atoms: _56  and  _58
REMARK   30  A    between atoms: _58  and  _59
REMARK   31  A    between atoms: _58  and  _61
REMARK   32  A    between atoms: _61  and  _62
REMARK   33  A    between atoms: _62  and  _63
REMARK   34  A    between atoms: _66  and  _68
REMARK   35  A    between atoms: _68  and  _69
REMARK   36  A    between atoms: _68  and  _71
REMARK   37  A    between atoms: _71  and  _72
REMARK   38  A    between atoms: _75  and  _77
REMARK   39  A    between atoms: _77  and  _78
REMARK   40  A    between atoms: _81  and  _83
REMARK   41  A    between atoms: _83  and  _84
REMARK   42  A    between atoms: _83  and  _86
REMARK   43  A    between atoms: _86  and  _87
REMARK   44  A    between atoms: _90  and  _92
REMARK   45  A    between atoms: _92  and  _93
REMARK   46  A    between atoms: _92  and  _95
REMARK   47  A    between atoms: _95  and  _96
REMARK   48  A    between atoms: _96  and  _97
REMARK   49  A    between atoms: _97  and  _98
REMARK   50  A    between atoms: _107  and  _109
REMARK   51  A    between atoms: _109  and  _110
REMARK   52  A    between atoms: _109  and  _112
REMARK   53  A    between atoms: _112  and  _113
REMARK   54  A    between atoms: _113  and  _114
REMARK   55  A    between atoms: _114  and  _115
REMARK   56  A    between atoms: _124  and  _126
REMARK   57  A    between atoms: _126  and  _127
REMARK   58  A    between atoms: _126  and  _129
REMARK   59  A    between atoms: _129  and  _130
REMARK   60  A    between atoms: _133  and  _135
REMARK   61  A    between atoms: _135  and  _136
REMARK   62  A    between atoms: _138  and  _140
REMARK   63  A    between atoms: _140  and  _141
REMARK   64  A    between atoms: _140  and  _143
REMARK   65  A    between atoms: _143  and  _144
REMARK   66  A    between atoms: _144  and  _145
REMARK   67  A    between atoms: _150  and  _152
REMARK   68  A    between atoms: _152  and  _153
REMARK   69  A    between atoms: _152  and  _155
REMARK   70  A    between atoms: _155  and  _156
REMARK   71  A    between atoms: _159  and  _161
REMARK   72  A    between atoms: _161  and  _162
REMARK   73  A    between atoms: _161  and  _164
REMARK   74  A    between atoms: _164  and  _165
REMARK   75  A    between atoms: _165  and  _166
REMARK   76  A    between atoms: _166  and  _167
REMARK   77  A    between atoms: _176  and  _178
REMARK   78  A    between atoms: _178  and  _179
REMARK   79  A    between atoms: _178  and  _181
REMARK   80  A    between atoms: _181  and  _182
REMARK   81  A    between atoms: _187  and  _188
REMARK   82  A    between atoms: _190  and  _192
REMARK   83  A    between atoms: _192  and  _193
REMARK   84  A    between atoms: _192  and  _195
REMARK   85  A    between atoms: _195  and  _196
REMARK   86  A    between atoms: _196  and  _197
REMARK   87  A    between atoms: _199  and  _201
REMARK   88  A    between atoms: _201  and  _202
REMARK   89  A    between atoms: _201  and  _204
REMARK   90  A    between atoms: _207  and  _209
REMARK   91  A    between atoms: _209  and  _210
REMARK   92  A    between atoms: _209  and  _212
REMARK   93  A    between atoms: _212  and  _213
REMARK   94  A    between atoms: _218  and  _220
REMARK   95  A    between atoms: _220  and  _221
REMARK   96  A    between atoms: _220  and  _223
REMARK   97  A    between atoms: _223  and  _224
REMARK   98  A    between atoms: _224  and  _225
REMARK   99  A    between atoms: _225  and  _226
REMARK  100  A    between atoms: _226  and  _227
REMARK  101  A    between atoms: _231  and  _233
REMARK  102  A    between atoms: _233  and  _234
REMARK  103  A    between atoms: _233  and  _236
REMARK  104  A    between atoms: _236  and  _237
REMARK  105  A    between atoms: _240  and  _242
REMARK  106  A    between atoms: _242  and  _243
REMARK  107  A    between atoms: _245  and  _247
REMARK  108  A    between atoms: _247  and  _248
REMARK  109  A    between atoms: _250  and  _252
REMARK  110  A    between atoms: _252  and  _253
REMARK  111  A    between atoms: _252  and  _255
REMARK  112  A    between atoms: _255  and  _256
REMARK  113  A    between atoms: _259  and  _261
REMARK  114  A    between atoms: _261  and  _262
REMARK  115  A    between atoms: _261  and  _264
REMARK  116  A    between atoms: _264  and  _265
REMARK  117  A    between atoms: _271  and  _273
REMARK  118  A    between atoms: _273  and  _274
REMARK  119  A    between atoms: _276  and  _278
REMARK  120  A    between atoms: _278  and  _279
REMARK  121  A    between atoms: _278  and  _281
REMARK  122  A    between atoms: _281  and  _282
REMARK  123  A    between atoms: _287  and  _288
REMARK  124  A    between atoms: _290  and  _292
REMARK  125  A    between atoms: _292  and  _293
REMARK  126  A    between atoms: _292  and  _295
REMARK  127  A    between atoms: _295  and  _296
REMARK  128  A    between atoms: _296  and  _297
REMARK  129  A    between atoms: _302  and  _304
REMARK  130  A    between atoms: _304  and  _305
REMARK  131  A    between atoms: _304  and  _307
REMARK  132  A    between atoms: _307  and  _308
REMARK  133  A    between atoms: _311  and  _313
REMARK  134  A    between atoms: _313  and  _314
REMARK  135  A    between atoms: _313  and  _316
REMARK  136  A    between atoms: _316  and  _317
REMARK  137  A    between atoms: _320  and  _322
REMARK  138  A    between atoms: _322  and  _323
REMARK  139  A    between atoms: _322  and  _325
REMARK  140  A    between atoms: _325  and  _326
REMARK  141  A    between atoms: _331  and  _333
REMARK  142  A    between atoms: _333  and  _334
REMARK  143  A    between atoms: _333  and  _336
REMARK  144  A    between atoms: _336  and  _337
REMARK  145  A    between atoms: _340  and  _342
REMARK  146  A    between atoms: _342  and  _343
REMARK  147  A    between atoms: _342  and  _345
REMARK  148  A    between atoms: _345  and  _346
REMARK  149  A    between atoms: _346  and  _347
REMARK  150  A    between atoms: _350  and  _352
REMARK  151  A    between atoms: _352  and  _353
REMARK  152  A    between atoms: _352  and  _355
REMARK  153  A    between atoms: _355  and  _356
REMARK  154  A    between atoms: _356  and  _357
REMARK  155  A    between atoms: _357  and  _358
REMARK  156  A    between atoms: _358  and  _359
REMARK  157  A    between atoms: _363  and  _365
REMARK  158  A    between atoms: _365  and  _366
REMARK  159  A    between atoms: _365  and  _368
REMARK  160  A    between atoms: _368  and  _369
REMARK                            x       y       z     vdW  Elec       q    Type
REMARK                         _______ _______ _______ _____ _____    ______ ____
ROOT
ATOM      1  O   HOH     1      31.388  39.903   3.863  0.00  0.00    +0.000 OA
ENDROOT
TORSDOF 0
REMARK  Name = ../refined-set-2016/2e91/2e91_pocket.pdb
REMARK  160 active torsions:
REMARK  status: ('A' for Active; 'I' for Inactive)
REMARK    1  A    between atoms: _1  and  _3
REMARK    2  A    between atoms: _3  and  _4
REMARK    3  A    between atoms: _3  and  _6
REMARK    4  A    between atoms: _6  and  _7
REMARK    5  A    between atoms: _12  and  _14
REMARK    6  A    between atoms: _14  and  _15
REMARK    7  A    between atoms: _14  and  _17
REMARK    8  A    between atoms: _17  and  _18
REMARK    9  A    between atoms: _20  and  _22
REMARK   10  A    between atoms: _22  and  _23
REMARK   11  A    between atoms: _22  and  _25
REMARK   12  A    between atoms: _25  and  _26
REMARK   13  A    between atoms: _29  and  _31
REMARK   14  A    between atoms: _31  and  _32
REMARK   15  A    between atoms: _31  and  _34
REMARK   16  A    between atoms: _34  and  _35
REMARK   17  A    between atoms: _38  and  _40
REMARK   18  A    between atoms: _40  and  _41
REMARK   19  A    between atoms: _40  and  _43
REMARK   20  A    between atoms: _43  and  _44
REMARK   21  A    between atoms: _44  and  _45
REMARK   22  A    between atoms: _44  and  _46
REMARK   23  A    between atoms: _45  and  MG_371
REMARK   24  A    between atoms: _46  and  MG_372
REMARK   25  A    between atoms: _47  and  _49
REMARK   26  A    between atoms: _49  and  _50
REMARK   27  A    between atoms: _49  and  _52
REMARK   28  A    between atoms: _52  and  _53
REMARK   29  A    between atoms: _56  and  _58
REMARK   30  A    between atoms: _58  and  _59
REMARK   31  A    between atoms: _58  and  _61
REMARK   32  A    between atoms: _61  and  _62
REMARK   33  A    between atoms: _62  and  _63
REMARK   34  A    between atoms: _66  and  _68
REMARK   35  A    between atoms: _68  and  _69
REMARK   36  A    between atoms: _68  and  _71
REMARK   37  A    between atoms: _71  and  _72
REMARK   38  A    between atoms: _75  and  _77
REMARK   39  A    between atoms: _77  and  _78
REMARK   40  A    between atoms: _81  and  _83
REMARK   41  A    between atoms: _83  and  _84
REMARK   42  A    between atoms: _83  and  _86
REMARK   43  A    between atoms: _86  and  _87
REMARK   44  A    between atoms: _90  and  _92
REMARK   45  A    between atoms: _92  and  _93
REMARK   46  A    between atoms: _92  and  _95
REMARK   47  A    between atoms: _95  and  _96
REMARK   48  A    between atoms: _96  and  _97
REMARK   49  A    between atoms: _97  and  _98
REMARK   50  A    between atoms: _107  and  _109
REMARK   51  A    between atoms: _109  and  _110
REMARK   52  A    between atoms: _109  and  _112
REMARK   53  A    between atoms: _112  and  _113
REMARK   54  A    between atoms: _113  and  _114
REMARK   55  A    between atoms: _114  and  _115
REMARK   56  A    between atoms: _124  and  _126
REMARK   57  A    between atoms: _126  and  _127
REMARK   58  A    between atoms: _126  and  _129
REMARK   59  A    between atoms: _129  and  _130
REMARK   60  A    between atoms: _133  and  _135
REMARK   61  A    between atoms: _135  and  _136
REMARK   62  A    between atoms: _138  and  _140
REMARK   63  A    between atoms: _140  and  _141
REMARK   64  A    between atoms: _140  and  _143
REMARK   65  A    between atoms: _143  and  _144
REMARK   66  A    between atoms: _144  and  _145
REMARK   67  A    between atoms: _150  and  _152
REMARK   68  A    between atoms: _152  and  _153
REMARK   69  A    between atoms: _152  and  _155
REMARK   70  A    between atoms: _155  and  _156
REMARK   71  A    between atoms: _159  and  _161
REMARK   72  A    between atoms: _161  and  _162
REMARK   73  A    between atoms: _161  and  _164
REMARK   74  A    between atoms: _164  and  _165
REMARK   75  A    between atoms: _165  and  _166
REMARK   76  A    between atoms: _166  and  _167
REMARK   77  A    between atoms: _176  and  _178
REMARK   78  A    between atoms: _178  and  _179
REMARK   79  A    between atoms: _178  and  _181
REMARK   80  A    between atoms: _181  and  _182
REMARK   81  A    between atoms: _187  and  _188
REMARK   82  A    between atoms: _190  and  _192
REMARK   83  A    between atoms: _192  and  _193
REMARK   84  A    between atoms: _192  and  _195
REMARK   85  A    between atoms: _195  and  _196
REMARK   86  A    between atoms: _196  and  _197
REMARK   87  A    between atoms: _199  and  _201
REMARK   88  A    between atoms: _201  and  _202
REMARK   89  A    between atoms: _201  and  _204
REMARK   90  A    between atoms: _207  and  _209
REMARK   91  A    between atoms: _209  and  _210
REMARK   92  A    between atoms: _209  and  _212
REMARK   93  A    between atoms: _212  and  _213
REMARK   94  A    between atoms: _218  and  _220
REMARK   95  A    between atoms: _220  and  _221
REMARK   96  A    between atoms: _220  and  _223
REMARK   97  A    between atoms: _223  and  _224
REMARK   98  A    between atoms: _224  and  _225
REMARK   99  A    between atoms: _225  and  _226
REMARK  100  A    between atoms: _226  and  _227
REMARK  101  A    between atoms: _231  and  _233
REMARK  102  A    between atoms: _233  and  _234
REMARK  103  A    between atoms: _233  and  _236
REMARK  104  A    between atoms: _236  and  _237
REMARK  105  A    between atoms: _240  and  _242
REMARK  106  A    between atoms: _242  and  _243
REMARK  107  A    between atoms: _245  and  _247
REMARK  108  A    between atoms: _247  and  _248
REMARK  109  A    between atoms: _250  and  _252
REMARK  110  A    between atoms: _252  and  _253
REMARK  111  A    between atoms: _252  and  _255
REMARK  112  A    between atoms: _255  and  _256
REMARK  113  A    between atoms: _259  and  _261
REMARK  114  A    between atoms: _261  and  _262
REMARK  115  A    between atoms: _261  and  _264
REMARK  116  A    between atoms: _264  and  _265
REMARK  117  A    between atoms: _271  and  _273
REMARK  118  A    between atoms: _273  and  _274
REMARK  119  A    between atoms: _276  and  _278
REMARK  120  A    between atoms: _278  and  _279
REMARK  121  A    between atoms: _278  and  _281
REMARK  122  A    between atoms: _281  and  _282
REMARK  123  A    between atoms: _287  and  _288
REMARK  124  A    between atoms: _290  and  _292
REMARK  125  A    between atoms: _292  and  _293
REMARK  126  A    between atoms: _292  and  _295
REMARK  127  A    between atoms: _295  and  _296
REMARK  128  A    between atoms: _296  and  _297
REMARK  129  A    between atoms: _302  and  _304
REMARK  130  A    between atoms: _304  and  _305
REMARK  131  A    between atoms: _304  and  _307
REMARK  132  A    between atoms: _307  and  _308
REMARK  133  A    between atoms: _311  and  _313
REMARK  134  A    between atoms: _313  and  _314
REMARK  135  A    between atoms: _313  and  _316
REMARK  136  A    between atoms: _316  and  _317
REMARK  137  A    between atoms: _320  and  _322
REMARK  138  A    between atoms: _322  and  _323
REMARK  139  A    between atoms: _322  and  _325
REMARK  140  A    between atoms: _325  and  _326
REMARK  141  A    between atoms: _331  and  _333
REMARK  142  A    between atoms: _333  and  _334
REMARK  143  A    between atoms: _333  and  _336
REMARK  144  A    between atoms: _336  and  _337
REMARK  145  A    between atoms: _340  and  _342
REMARK  146  A    between atoms: _342  and  _343
REMARK  147  A    between atoms: _342  and  _345
REMARK  148  A    between atoms: _345  and  _346
REMARK  149  A    between atoms: _346  and  _347
REMARK  150  A    between atoms: _350  and  _352
REMARK  151  A    between atoms: _352  and  _353
REMARK  152  A    between atoms: _352  and  _355
REMARK  153  A    between atoms: _355  and  _356
REMARK  154  A    between atoms: _356  and  _357
REMARK  155  A    between atoms: _357  and  _358
REMARK  156  A    between atoms: _358  and  _359
REMARK  157  A    between atoms: _363  and  _365
REMARK  158  A    between atoms: _365  and  _366
REMARK  159  A    between atoms: _365  and  _368
REMARK  160  A    between atoms: _368  and  _369
REMARK                            x       y       z     vdW  Elec       q    Type
REMARK                         _______ _______ _______ _____ _____    ______ ____
ROOT
ATOM      1  O   HOH     1      26.473  42.711   3.850  0.00  0.00    +0.000 OA
ENDROOT
TORSDOF 0
REMARK  Name = ../refined-set-2016/2e91/2e91_pocket.pdb
REMARK  160 active torsions:
REMARK  status: ('A' for Active; 'I' for Inactive)
REMARK    1  A    between atoms: _1  and  _3
REMARK    2  A    between atoms: _3  and  _4
REMARK    3  A    between atoms: _3  and  _6
REMARK    4  A    between atoms: _6  and  _7
REMARK    5  A    between atoms: _12  and  _14
REMARK    6  A    between atoms: _14  and  _15
REMARK    7  A    between atoms: _14  and  _17
REMARK    8  A    between atoms: _17  and  _18
REMARK    9  A    between atoms: _20  and  _22
REMARK   10  A    between atoms: _22  and  _23
REMARK   11  A    between atoms: _22  and  _25
REMARK   12  A    between atoms: _25  and  _26
REMARK   13  A    between atoms: _29  and  _31
REMARK   14  A    between atoms: _31  and  _32
REMARK   15  A    between atoms: _31  and  _34
REMARK   16  A    between atoms: _34  and  _35
REMARK   17  A    between atoms: _38  and  _40
REMARK   18  A    between atoms: _40  and  _41
REMARK   19  A    between atoms: _40  and  _43
REMARK   20  A    between atoms: _43  and  _44
REMARK   21  A    between atoms: _44  and  _45
REMARK   22  A    between atoms: _44  and  _46
REMARK   23  A    between atoms: _45  and  MG_371
REMARK   24  A    between atoms: _46  and  MG_372
REMARK   25  A    between atoms: _47  and  _49
REMARK   26  A    between atoms: _49  and  _50
REMARK   27  A    between atoms: _49  and  _52
REMARK   28  A    between atoms: _52  and  _53
REMARK   29  A    between atoms: _56  and  _58
REMARK   30  A    between atoms: _58  and  _59
REMARK   31  A    between atoms: _58  and  _61
REMARK   32  A    between atoms: _61  and  _62
REMARK   33  A    between atoms: _62  and  _63
REMARK   34  A    between atoms: _66  and  _68
REMARK   35  A    between atoms: _68  and  _69
REMARK   36  A    between atoms: _68  and  _71
REMARK   37  A    between atoms: _71  and  _72
REMARK   38  A    between atoms: _75  and  _77
REMARK   39  A    between atoms: _77  and  _78
REMARK   40  A    between atoms: _81  and  _83
REMARK   41  A    between atoms: _83  and  _84
REMARK   42  A    between atoms: _83  and  _86
REMARK   43  A    between atoms: _86  and  _87
REMARK   44  A    between atoms: _90  and  _92
REMARK   45  A    between atoms: _92  and  _93
REMARK   46  A    between atoms: _92  and  _95
REMARK   47  A    between atoms: _95  and  _96
REMARK   48  A    between atoms: _96  and  _97
REMARK   49  A    between atoms: _97  and  _98
REMARK   50  A    between atoms: _107  and  _109
REMARK   51  A    between atoms: _109  and  _110
REMARK   52  A    between atoms: _109  and  _112
REMARK   53  A    between atoms: _112  and  _113
REMARK   54  A    between atoms: _113  and  _114
REMARK   55  A    between atoms: _114  and  _115
REMARK   56  A    between atoms: _124  and  _126
REMARK   57  A    between atoms: _126  and  _127
REMARK   58  A    between atoms: _126  and  _129
REMARK   59  A    between atoms: _129  and  _130
REMARK   60  A    between atoms: _133  and  _135
REMARK   61  A    between atoms: _135  and  _136
REMARK   62  A    between atoms: _138  and  _140
REMARK   63  A    between atoms: _140  and  _141
REMARK   64  A    between atoms: _140  and  _143
REMARK   65  A    between atoms: _143  and  _144
REMARK   66  A    between atoms: _144  and  _145
REMARK   67  A    between atoms: _150  and  _152
REMARK   68  A    between atoms: _152  and  _153
REMARK   69  A    between atoms: _152  and  _155
REMARK   70  A    between atoms: _155  and  _156
REMARK   71  A    between atoms: _159  and  _161
REMARK   72  A    between atoms: _161  and  _162
REMARK   73  A    between atoms: _161  and  _164
REMARK   74  A    between atoms: _164  and  _165
REMARK   75  A    between atoms: _165  and  _166
REMARK   76  A    between atoms: _166  and  _167
REMARK   77  A    between atoms: _176  and  _178
REMARK   78  A    between atoms: _178  and  _179
REMARK   79  A    between atoms: _178  and  _181
REMARK   80  A    between atoms: _181  and  _182
REMARK   81  A    between atoms: _187  and  _188
REMARK   82  A    between atoms: _190  and  _192
REMARK   83  A    between atoms: _192  and  _193
REMARK   84  A    between atoms: _192  and  _195
REMARK   85  A    between atoms: _195  and  _196
REMARK   86  A    between atoms: _196  and  _197
REMARK   87  A    between atoms: _199  and  _201
REMARK   88  A    between atoms: _201  and  _202
REMARK   89  A    between atoms: _201  and  _204
REMARK   90  A    between atoms: _207  and  _209
REMARK   91  A    between atoms: _209  and  _210
REMARK   92  A    between atoms: _209  and  _212
REMARK   93  A    between atoms: _212  and  _213
REMARK   94  A    between atoms: _218  and  _220
REMARK   95  A    between atoms: _220  and  _221
REMARK   96  A    between atoms: _220  and  _223
REMARK   97  A    between atoms: _223  and  _224
REMARK   98  A    between atoms: _224  and  _225
REMARK   99  A    between atoms: _225  and  _226
REMARK  100  A    between atoms: _226  and  _227
REMARK  101  A    between atoms: _231  and  _233
REMARK  102  A    between atoms: _233  and  _234
REMARK  103  A    between atoms: _233  and  _236
REMARK  104  A    between atoms: _236  and  _237
REMARK  105  A    between atoms: _240  and  _242
REMARK  106  A    between atoms: _242  and  _243
REMARK  107  A    between atoms: _245  and  _247
REMARK  108  A    between atoms: _247  and  _248
REMARK  109  A    between atoms: _250  and  _252
REMARK  110  A    between atoms: _252  and  _253
REMARK  111  A    between atoms: _252  and  _255
REMARK  112  A    between atoms: _255  and  _256
REMARK  113  A    between atoms: _259  and  _261
REMARK  114  A    between atoms: _261  and  _262
REMARK  115  A    between atoms: _261  and  _264
REMARK  116  A    between atoms: _264  and  _265
REMARK  117  A    between atoms: _271  and  _273
REMARK  118  A    between atoms: _273  and  _274
REMARK  119  A    between atoms: _276  and  _278
REMARK  120  A    between atoms: _278  and  _279
REMARK  121  A    between atoms: _278  and  _281
REMARK  122  A    between atoms: _281  and  _282
REMARK  123  A    between atoms: _287  and  _288
REMARK  124  A    between atoms: _290  and  _292
REMARK  125  A    between atoms: _292  and  _293
REMARK  126  A    between atoms: _292  and  _295
REMARK  127  A    between atoms: _295  and  _296
REMARK  128  A    between atoms: _296  and  _297
REMARK  129  A    between atoms: _302  and  _304
REMARK  130  A    between atoms: _304  and  _305
REMARK  131  A    between atoms: _304  and  _307
REMARK  132  A    between atoms: _307  and  _308
REMARK  133  A    between atoms: _311  and  _313
REMARK  134  A    between atoms: _313  and  _314
REMARK  135  A    between atoms: _313  and  _316
REMARK  136  A    between atoms: _316  and  _317
REMARK  137  A    between atoms: _320  and  _322
REMARK  138  A    between atoms: _322  and  _323
REMARK  139  A    between atoms: _322  and  _325
REMARK  140  A    between atoms: _325  and  _326
REMARK  141  A    between atoms: _331  and  _333
REMARK  142  A    between atoms: _333  and  _334
REMARK  143  A    between atoms: _333  and  _336
REMARK  144  A    between atoms: _336  and  _337
REMARK  145  A    between atoms: _340  and  _342
REMARK  146  A    between atoms: _342  and  _343
REMARK  147  A    between atoms: _342  and  _345
REMARK  148  A    between atoms: _345  and  _346
REMARK  149  A    between atoms: _346  and  _347
REMARK  150  A    between atoms: _350  and  _352
REMARK  151  A    between atoms: _352  and  _353
REMARK  152  A    between atoms: _352  and  _355
REMARK  153  A    between atoms: _355  and  _356
REMARK  154  A    between atoms: _356  and  _357
REMARK  155  A    between atoms: _357  and  _358
REMARK  156  A    between atoms: _358  and  _359
REMARK  157  A    between atoms: _363  and  _365
REMARK  158  A    between atoms: _365  and  _366
REMARK  159  A    between atoms: _365  and  _368
REMARK  160  A    between atoms: _368  and  _369
REMARK                            x       y       z     vdW  Elec       q    Type
REMARK                         _______ _______ _______ _____ _____    ______ ____
ROOT
ATOM      1  O   HOH     1      23.609  42.979   9.119  0.00  0.00    +0.000 OA
ENDROOT
TORSDOF 0
REMARK  Name = ../refined-set-2016/2e91/2e91_pocket.pdb
REMARK  160 active torsions:
REMARK  status: ('A' for Active; 'I' for Inactive)
REMARK    1  A    between atoms: _1  and  _3
REMARK    2  A    between atoms: _3  and  _4
REMARK    3  A    between atoms: _3  and  _6
REMARK    4  A    between atoms: _6  and  _7
REMARK    5  A    between atoms: _12  and  _14
REMARK    6  A    between atoms: _14  and  _15
REMARK    7  A    between atoms: _14  and  _17
REMARK    8  A    between atoms: _17  and  _18
REMARK    9  A    between atoms: _20  and  _22
REMARK   10  A    between atoms: _22  and  _23
REMARK   11  A    between atoms: _22  and  _25
REMARK   12  A    between atoms: _25  and  _26
REMARK   13  A    between atoms: _29  and  _31
REMARK   14  A    between atoms: _31  and  _32
REMARK   15  A    between atoms: _31  and  _34
REMARK   16  A    between atoms: _34  and  _35
REMARK   17  A    between atoms: _38  and  _40
REMARK   18  A    between atoms: _40  and  _41
REMARK   19  A    between atoms: _40  and  _43
REMARK   20  A    between atoms: _43  and  _44
REMARK   21  A    between atoms: _44  and  _45
REMARK   22  A    between atoms: _44  and  _46
REMARK   23  A    between atoms: _45  and  MG_371
REMARK   24  A    between atoms: _46  and  MG_372
REMARK   25  A    between atoms: _47  and  _49
REMARK   26  A    between atoms: _49  and  _50
REMARK   27  A    between atoms: _49  and  _52
REMARK   28  A    between atoms: _52  and  _53
REMARK   29  A    between atoms: _56  and  _58
REMARK   30  A    between atoms: _58  and  _59
REMARK   31  A    between atoms: _58  and  _61
REMARK   32  A    between atoms: _61  and  _62
REMARK   33  A    between atoms: _62  and  _63
REMARK   34  A    between atoms: _66  and  _68
REMARK   35  A    between atoms: _68  and  _69
REMARK   36  A    between atoms: _68  and  _71
REMARK   37  A    between atoms: _71  and  _72
REMARK   38  A    between atoms: _75  and  _77
REMARK   39  A    between atoms: _77  and  _78
REMARK   40  A    between atoms: _81  and  _83
REMARK   41  A    between atoms: _83  and  _84
REMARK   42  A    between atoms: _83  and  _86
REMARK   43  A    between atoms: _86  and  _87
REMARK   44  A    between atoms: _90  and  _92
REMARK   45  A    between atoms: _92  and  _93
REMARK   46  A    between atoms: _92  and  _95
REMARK   47  A    between atoms: _95  and  _96
REMARK   48  A    between atoms: _96  and  _97
REMARK   49  A    between atoms: _97  and  _98
REMARK   50  A    between atoms: _107  and  _109
REMARK   51  A    between atoms: _109  and  _110
REMARK   52  A    between atoms: _109  and  _112
REMARK   53  A    between atoms: _112  and  _113
REMARK   54  A    between atoms: _113  and  _114
REMARK   55  A    between atoms: _114  and  _115
REMARK   56  A    between atoms: _124  and  _126
REMARK   57  A    between atoms: _126  and  _127
REMARK   58  A    between atoms: _126  and  _129
REMARK   59  A    between atoms: _129  and  _130
REMARK   60  A    between atoms: _133  and  _135
REMARK   61  A    between atoms: _135  and  _136
REMARK   62  A    between atoms: _138  and  _140
REMARK   63  A    between atoms: _140  and  _141
REMARK   64  A    between atoms: _140  and  _143
REMARK   65  A    between atoms: _143  and  _144
REMARK   66  A    between atoms: _144  and  _145
REMARK   67  A    between atoms: _150  and  _152
REMARK   68  A    between atoms: _152  and  _153
REMARK   69  A    between atoms: _152  and  _155
REMARK   70  A    between atoms: _155  and  _156
REMARK   71  A    between atoms: _159  and  _161
REMARK   72  A    between atoms: _161  and  _162
REMARK   73  A    between atoms: _161  and  _164
REMARK   74  A    between atoms: _164  and  _165
REMARK   75  A    between atoms: _165  and  _166
REMARK   76  A    between atoms: _166  and  _167
REMARK   77  A    between atoms: _176  and  _178
REMARK   78  A    between atoms: _178  and  _179
REMARK   79  A    between atoms: _178  and  _181
REMARK   80  A    between atoms: _181  and  _182
REMARK   81  A    between atoms: _187  and  _188
REMARK   82  A    between atoms: _190  and  _192
REMARK   83  A    between atoms: _192  and  _193
REMARK   84  A    between atoms: _192  and  _195
REMARK   85  A    between atoms: _195  and  _196
REMARK   86  A    between atoms: _196  and  _197
REMARK   87  A    between atoms: _199  and  _201
REMARK   88  A    between atoms: _201  and  _202
REMARK   89  A    between atoms: _201  and  _204
REMARK   90  A    between atoms: _207  and  _209
REMARK   91  A    between atoms: _209  and  _210
REMARK   92  A    between atoms: _209  and  _212
REMARK   93  A    between atoms: _212  and  _213
REMARK   94  A    between atoms: _218  and  _220
REMARK   95  A    between atoms: _220  and  _221
REMARK   96  A    between atoms: _220  and  _223
REMARK   97  A    between atoms: _223  and  _224
REMARK   98  A    between atoms: _224  and  _225
REMARK   99  A    between atoms: _225  and  _226
REMARK  100  A    between atoms: _226  and  _227
REMARK  101  A    between atoms: _231  and  _233
REMARK  102  A    between atoms: _233  and  _234
REMARK  103  A    between atoms: _233  and  _236
REMARK  104  A    between atoms: _236  and  _237
REMARK  105  A    between atoms: _240  and  _242
REMARK  106  A    between atoms: _242  and  _243
REMARK  107  A    between atoms: _245  and  _247
REMARK  108  A    between atoms: _247  and  _248
REMARK  109  A    between atoms: _250  and  _252
REMARK  110  A    between atoms: _252  and  _253
REMARK  111  A    between atoms: _252  and  _255
REMARK  112  A    between atoms: _255  and  _256
REMARK  113  A    between atoms: _259  and  _261
REMARK  114  A    between atoms: _261  and  _262
REMARK  115  A    between atoms: _261  and  _264
REMARK  116  A    between atoms: _264  and  _265
REMARK  117  A    between atoms: _271  and  _273
REMARK  118  A    between atoms: _273  and  _274
REMARK  119  A    between atoms: _276  and  _278
REMARK  120  A    between atoms: _278  and  _279
REMARK  121  A    between atoms: _278  and  _281
REMARK  122  A    between atoms: _281  and  _282
REMARK  123  A    between atoms: _287  and  _288
REMARK  124  A    between atoms: _290  and  _292
REMARK  125  A    between atoms: _292  and  _293
REMARK  126  A    between atoms: _292  and  _295
REMARK  127  A    between atoms: _295  and  _296
REMARK  128  A    between atoms: _296  and  _297
REMARK  129  A    between atoms: _302  and  _304
REMARK  130  A    between atoms: _304  and  _305
REMARK  131  A    between atoms: _304  and  _307
REMARK  132  A    between atoms: _307  and  _308
REMARK  133  A    between atoms: _311  and  _313
REMARK  134  A    between atoms: _313  and  _314
REMARK  135  A    between atoms: _313  and  _316
REMARK  136  A    between atoms: _316  and  _317
REMARK  137  A    between atoms: _320  and  _322
REMARK  138  A    between atoms: _322  and  _323
REMARK  139  A    between atoms: _322  and  _325
REMARK  140  A    between atoms: _325  and  _326
REMARK  141  A    between atoms: _331  and  _333
REMARK  142  A    between atoms: _333  and  _334
REMARK  143  A    between atoms: _333  and  _336
REMARK  144  A    between atoms: _336  and  _337
REMARK  145  A    between atoms: _340  and  _342
REMARK  146  A    between atoms: _342  and  _343
REMARK  147  A    between atoms: _342  and  _345
REMARK  148  A    between atoms: _345  and  _346
REMARK  149  A    between atoms: _346  and  _347
REMARK  150  A    between atoms: _350  and  _352
REMARK  151  A    between atoms: _352  and  _353
REMARK  152  A    between atoms: _352  and  _355
REMARK  153  A    between atoms: _355  and  _356
REMARK  154  A    between atoms: _356  and  _357
REMARK  155  A    between atoms: _357  and  _358
REMARK  156  A    between atoms: _358  and  _359
REMARK  157  A    between atoms: _363  and  _365
REMARK  158  A    between atoms: _365  and  _366
REMARK  159  A    between atoms: _365  and  _368
REMARK  160  A    between atoms: _368  and  _369
REMARK                            x       y       z     vdW  Elec       q    Type
REMARK                         _______ _______ _______ _____ _____    ______ ____
ROOT
ATOM      1  O   HOH     1      23.438  43.887   6.419  0.00  0.00    +0.000 OA
ENDROOT
TORSDOF 0
REMARK  Name = ../refined-set-2016/2e91/2e91_pocket.pdb
REMARK  160 active torsions:
REMARK  status: ('A' for Active; 'I' for Inactive)
REMARK    1  A    between atoms: _1  and  _3
REMARK    2  A    between atoms: _3  and  _4
REMARK    3  A    between atoms: _3  and  _6
REMARK    4  A    between atoms: _6  and  _7
REMARK    5  A    between atoms: _12  and  _14
REMARK    6  A    between atoms: _14  and  _15
REMARK    7  A    between atoms: _14  and  _17
REMARK    8  A    between atoms: _17  and  _18
REMARK    9  A    between atoms: _20  and  _22
REMARK   10  A    between atoms: _22  and  _23
REMARK   11  A    between atoms: _22  and  _25
REMARK   12  A    between atoms: _25  and  _26
REMARK   13  A    between atoms: _29  and  _31
REMARK   14  A    between atoms: _31  and  _32
REMARK   15  A    between atoms: _31  and  _34
REMARK   16  A    between atoms: _34  and  _35
REMARK   17  A    between atoms: _38  and  _40
REMARK   18  A    between atoms: _40  and  _41
REMARK   19  A    between atoms: _40  and  _43
REMARK   20  A    between atoms: _43  and  _44
REMARK   21  A    between atoms: _44  and  _45
REMARK   22  A    between atoms: _44  and  _46
REMARK   23  A    between atoms: _45  and  MG_371
REMARK   24  A    between atoms: _46  and  MG_372
REMARK   25  A    between atoms: _47  and  _49
REMARK   26  A    between atoms: _49  and  _50
REMARK   27  A    between atoms: _49  and  _52
REMARK   28  A    between atoms: _52  and  _53
REMARK   29  A    between atoms: _56  and  _58
REMARK   30  A    between atoms: _58  and  _59
REMARK   31  A    between atoms: _58  and  _61
REMARK   32  A    between atoms: _61  and  _62
REMARK   33  A    between atoms: _62  and  _63
REMARK   34  A    between atoms: _66  and  _68
REMARK   35  A    between atoms: _68  and  _69
REMARK   36  A    between atoms: _68  and  _71
REMARK   37  A    between atoms: _71  and  _72
REMARK   38  A    between atoms: _75  and  _77
REMARK   39  A    between atoms: _77  and  _78
REMARK   40  A    between atoms: _81  and  _83
REMARK   41  A    between atoms: _83  and  _84
REMARK   42  A    between atoms: _83  and  _86
REMARK   43  A    between atoms: _86  and  _87
REMARK   44  A    between atoms: _90  and  _92
REMARK   45  A    between atoms: _92  and  _93
REMARK   46  A    between atoms: _92  and  _95
REMARK   47  A    between atoms: _95  and  _96
REMARK   48  A    between atoms: _96  and  _97
REMARK   49  A    between atoms: _97  and  _98
REMARK   50  A    between atoms: _107  and  _109
REMARK   51  A    between atoms: _109  and  _110
REMARK   52  A    between atoms: _109  and  _112
REMARK   53  A    between atoms: _112  and  _113
REMARK   54  A    between atoms: _113  and  _114
REMARK   55  A    between atoms: _114  and  _115
REMARK   56  A    between atoms: _124  and  _126
REMARK   57  A    between atoms: _126  and  _127
REMARK   58  A    between atoms: _126  and  _129
REMARK   59  A    between atoms: _129  and  _130
REMARK   60  A    between atoms: _133  and  _135
REMARK   61  A    between atoms: _135  and  _136
REMARK   62  A    between atoms: _138  and  _140
REMARK   63  A    between atoms: _140  and  _141
REMARK   64  A    between atoms: _140  and  _143
REMARK   65  A    between atoms: _143  and  _144
REMARK   66  A    between atoms: _144  and  _145
REMARK   67  A    between atoms: _150  and  _152
REMARK   68  A    between atoms: _152  and  _153
REMARK   69  A    between atoms: _152  and  _155
REMARK   70  A    between atoms: _155  and  _156
REMARK   71  A    between atoms: _159  and  _161
REMARK   72  A    between atoms: _161  and  _162
REMARK   73  A    between atoms: _161  and  _164
REMARK   74  A    between atoms: _164  and  _165
REMARK   75  A    between atoms: _165  and  _166
REMARK   76  A    between atoms: _166  and  _167
REMARK   77  A    between atoms: _176  and  _178
REMARK   78  A    between atoms: _178  and  _179
REMARK   79  A    between atoms: _178  and  _181
REMARK   80  A    between atoms: _181  and  _182
REMARK   81  A    between atoms: _187  and  _188
REMARK   82  A    between atoms: _190  and  _192
REMARK   83  A    between atoms: _192  and  _193
REMARK   84  A    between atoms: _192  and  _195
REMARK   85  A    between atoms: _195  and  _196
REMARK   86  A    between atoms: _196  and  _197
REMARK   87  A    between atoms: _199  and  _201
REMARK   88  A    between atoms: _201  and  _202
REMARK   89  A    between atoms: _201  and  _204
REMARK   90  A    between atoms: _207  and  _209
REMARK   91  A    between atoms: _209  and  _210
REMARK   92  A    between atoms: _209  and  _212
REMARK   93  A    between atoms: _212  and  _213
REMARK   94  A    between atoms: _218  and  _220
REMARK   95  A    between atoms: _220  and  _221
REMARK   96  A    between atoms: _220  and  _223
REMARK   97  A    between atoms: _223  and  _224
REMARK   98  A    between atoms: _224  and  _225
REMARK   99  A    between atoms: _225  and  _226
REMARK  100  A    between atoms: _226  and  _227
REMARK  101  A    between atoms: _231  and  _233
REMARK  102  A    between atoms: _233  and  _234
REMARK  103  A    between atoms: _233  and  _236
REMARK  104  A    between atoms: _236  and  _237
REMARK  105  A    between atoms: _240  and  _242
REMARK  106  A    between atoms: _242  and  _243
REMARK  107  A    between atoms: _245  and  _247
REMARK  108  A    between atoms: _247  and  _248
REMARK  109  A    between atoms: _250  and  _252
REMARK  110  A    between atoms: _252  and  _253
REMARK  111  A    between atoms: _252  and  _255
REMARK  112  A    between atoms: _255  and  _256
REMARK  113  A    between atoms: _259  and  _261
REMARK  114  A    between atoms: _261  and  _262
REMARK  115  A    between atoms: _261  and  _264
REMARK  116  A    between atoms: _264  and  _265
REMARK  117  A    between atoms: _271  and  _273
REMARK  118  A    between atoms: _273  and  _274
REMARK  119  A    between atoms: _276  and  _278
REMARK  120  A    between atoms: _278  and  _279
REMARK  121  A    between atoms: _278  and  _281
REMARK  122  A    between atoms: _281  and  _282
REMARK  123  A    between atoms: _287  and  _288
REMARK  124  A    between atoms: _290  and  _292
REMARK  125  A    between atoms: _292  and  _293
REMARK  126  A    between atoms: _292  and  _295
REMARK  127  A    between atoms: _295  and  _296
REMARK  128  A    between atoms: _296  and  _297
REMARK  129  A    between atoms: _302  and  _304
REMARK  130  A    between atoms: _304  and  _305
REMARK  131  A    between atoms: _304  and  _307
REMARK  132  A    between atoms: _307  and  _308
REMARK  133  A    between atoms: _311  and  _313
REMARK  134  A    between atoms: _313  and  _314
REMARK  135  A    between atoms: _313  and  _316
REMARK  136  A    between atoms: _316  and  _317
REMARK  137  A    between atoms: _320  and  _322
REMARK  138  A    between atoms: _322  and  _323
REMARK  139  A    between atoms: _322  and  _325
REMARK  140  A    between atoms: _325  and  _326
REMARK  141  A    between atoms: _331  and  _333
REMARK  142  A    between atoms: _333  and  _334
REMARK  143  A    between atoms: _333  and  _336
REMARK  144  A    between atoms: _336  and  _337
REMARK  145  A    between atoms: _340  and  _342
REMARK  146  A    between atoms: _342  and  _343
REMARK  147  A    between atoms: _342  and  _345
REMARK  148  A    between atoms: _345  and  _346
REMARK  149  A    between atoms: _346  and  _347
REMARK  150  A    between atoms: _350  and  _352
REMARK  151  A    between atoms: _352  and  _353
REMARK  152  A    between atoms: _352  and  _355
REMARK  153  A    between atoms: _355  and  _356
REMARK  154  A    between atoms: _356  and  _357
REMARK  155  A    between atoms: _357  and  _358
REMARK  156  A    between atoms: _358  and  _359
REMARK  157  A    between atoms: _363  and  _365
REMARK  158  A    between atoms: _365  and  _366
REMARK  159  A    between atoms: _365  and  _368
REMARK  160  A    between atoms: _368  and  _369
REMARK                            x       y       z     vdW  Elec       q    Type
REMARK                         _______ _______ _______ _____ _____    ______ ____
ROOT
ATOM      1  O   HOH     1      27.041  44.254   1.840  0.00  0.00    +0.000 OA
ENDROOT
TORSDOF 0
REMARK  Name = ../refined-set-2016/2e91/2e91_pocket.pdb
REMARK  160 active torsions:
REMARK  status: ('A' for Active; 'I' for Inactive)
REMARK    1  A    between atoms: _1  and  _3
REMARK    2  A    between atoms: _3  and  _4
REMARK    3  A    between atoms: _3  and  _6
REMARK    4  A    between atoms: _6  and  _7
REMARK    5  A    between atoms: _12  and  _14
REMARK    6  A    between atoms: _14  and  _15
REMARK    7  A    between atoms: _14  and  _17
REMARK    8  A    between atoms: _17  and  _18
REMARK    9  A    between atoms: _20  and  _22
REMARK   10  A    between atoms: _22  and  _23
REMARK   11  A    between atoms: _22  and  _25
REMARK   12  A    between atoms: _25  and  _26
REMARK   13  A    between atoms: _29  and  _31
REMARK   14  A    between atoms: _31  and  _32
REMARK   15  A    between atoms: _31  and  _34
REMARK   16  A    between atoms: _34  and  _35
REMARK   17  A    between atoms: _38  and  _40
REMARK   18  A    between atoms: _40  and  _41
REMARK   19  A    between atoms: _40  and  _43
REMARK   20  A    between atoms: _43  and  _44
REMARK   21  A    between atoms: _44  and  _45
REMARK   22  A    between atoms: _44  and  _46
REMARK   23  A    between atoms: _45  and  MG_371
REMARK   24  A    between atoms: _46  and  MG_372
REMARK   25  A    between atoms: _47  and  _49
REMARK   26  A    between atoms: _49  and  _50
REMARK   27  A    between atoms: _49  and  _52
REMARK   28  A    between atoms: _52  and  _53
REMARK   29  A    between atoms: _56  and  _58
REMARK   30  A    between atoms: _58  and  _59
REMARK   31  A    between atoms: _58  and  _61
REMARK   32  A    between atoms: _61  and  _62
REMARK   33  A    between atoms: _62  and  _63
REMARK   34  A    between atoms: _66  and  _68
REMARK   35  A    between atoms: _68  and  _69
REMARK   36  A    between atoms: _68  and  _71
REMARK   37  A    between atoms: _71  and  _72
REMARK   38  A    between atoms: _75  and  _77
REMARK   39  A    between atoms: _77  and  _78
REMARK   40  A    between atoms: _81  and  _83
REMARK   41  A    between atoms: _83  and  _84
REMARK   42  A    between atoms: _83  and  _86
REMARK   43  A    between atoms: _86  and  _87
REMARK   44  A    between atoms: _90  and  _92
REMARK   45  A    between atoms: _92  and  _93
REMARK   46  A    between atoms: _92  and  _95
REMARK   47  A    between atoms: _95  and  _96
REMARK   48  A    between atoms: _96  and  _97
REMARK   49  A    between atoms: _97  and  _98
REMARK   50  A    between atoms: _107  and  _109
REMARK   51  A    between atoms: _109  and  _110
REMARK   52  A    between atoms: _109  and  _112
REMARK   53  A    between atoms: _112  and  _113
REMARK   54  A    between atoms: _113  and  _114
REMARK   55  A    between atoms: _114  and  _115
REMARK   56  A    between atoms: _124  and  _126
REMARK   57  A    between atoms: _126  and  _127
REMARK   58  A    between atoms: _126  and  _129
REMARK   59  A    between atoms: _129  and  _130
REMARK   60  A    between atoms: _133  and  _135
REMARK   61  A    between atoms: _135  and  _136
REMARK   62  A    between atoms: _138  and  _140
REMARK   63  A    between atoms: _140  and  _141
REMARK   64  A    between atoms: _140  and  _143
REMARK   65  A    between atoms: _143  and  _144
REMARK   66  A    between atoms: _144  and  _145
REMARK   67  A    between atoms: _150  and  _152
REMARK   68  A    between atoms: _152  and  _153
REMARK   69  A    between atoms: _152  and  _155
REMARK   70  A    between atoms: _155  and  _156
REMARK   71  A    between atoms: _159  and  _161
REMARK   72  A    between atoms: _161  and  _162
REMARK   73  A    between atoms: _161  and  _164
REMARK   74  A    between atoms: _164  and  _165
REMARK   75  A    between atoms: _165  and  _166
REMARK   76  A    between atoms: _166  and  _167
REMARK   77  A    between atoms: _176  and  _178
REMARK   78  A    between atoms: _178  and  _179
REMARK   79  A    between atoms: _178  and  _181
REMARK   80  A    between atoms: _181  and  _182
REMARK   81  A    between atoms: _187  and  _188
REMARK   82  A    between atoms: _190  and  _192
REMARK   83  A    between atoms: _192  and  _193
REMARK   84  A    between atoms: _192  and  _195
REMARK   85  A    between atoms: _195  and  _196
REMARK   86  A    between atoms: _196  and  _197
REMARK   87  A    between atoms: _199  and  _201
REMARK   88  A    between atoms: _201  and  _202
REMARK   89  A    between atoms: _201  and  _204
REMARK   90  A    between atoms: _207  and  _209
REMARK   91  A    between atoms: _209  and  _210
REMARK   92  A    between atoms: _209  and  _212
REMARK   93  A    between atoms: _212  and  _213
REMARK   94  A    between atoms: _218  and  _220
REMARK   95  A    between atoms: _220  and  _221
REMARK   96  A    between atoms: _220  and  _223
REMARK   97  A    between atoms: _223  and  _224
REMARK   98  A    between atoms: _224  and  _225
REMARK   99  A    between atoms: _225  and  _226
REMARK  100  A    between atoms: _226  and  _227
REMARK  101  A    between atoms: _231  and  _233
REMARK  102  A    between atoms: _233  and  _234
REMARK  103  A    between atoms: _233  and  _236
REMARK  104  A    between atoms: _236  and  _237
REMARK  105  A    between atoms: _240  and  _242
REMARK  106  A    between atoms: _242  and  _243
REMARK  107  A    between atoms: _245  and  _247
REMARK  108  A    between atoms: _247  and  _248
REMARK  109  A    between atoms: _250  and  _252
REMARK  110  A    between atoms: _252  and  _253
REMARK  111  A    between atoms: _252  and  _255
REMARK  112  A    between atoms: _255  and  _256
REMARK  113  A    between atoms: _259  and  _261
REMARK  114  A    between atoms: _261  and  _262
REMARK  115  A    between atoms: _261  and  _264
REMARK  116  A    between atoms: _264  and  _265
REMARK  117  A    between atoms: _271  and  _273
REMARK  118  A    between atoms: _273  and  _274
REMARK  119  A    between atoms: _276  and  _278
REMARK  120  A    between atoms: _278  and  _279
REMARK  121  A    between atoms: _278  and  _281
REMARK  122  A    between atoms: _281  and  _282
REMARK  123  A    between atoms: _287  and  _288
REMARK  124  A    between atoms: _290  and  _292
REMARK  125  A    between atoms: _292  and  _293
REMARK  126  A    between atoms: _292  and  _295
REMARK  127  A    between atoms: _295  and  _296
REMARK  128  A    between atoms: _296  and  _297
REMARK  129  A    between atoms: _302  and  _304
REMARK  130  A    between atoms: _304  and  _305
REMARK  131  A    between atoms: _304  and  _307
REMARK  132  A    between atoms: _307  and  _308
REMARK  133  A    between atoms: _311  and  _313
REMARK  134  A    between atoms: _313  and  _314
REMARK  135  A    between atoms: _313  and  _316
REMARK  136  A    between atoms: _316  and  _317
REMARK  137  A    between atoms: _320  and  _322
REMARK  138  A    between atoms: _322  and  _323
REMARK  139  A    between atoms: _322  and  _325
REMARK  140  A    between atoms: _325  and  _326
REMARK  141  A    between atoms: _331  and  _333
REMARK  142  A    between atoms: _333  and  _334
REMARK  143  A    between atoms: _333  and  _336
REMARK  144  A    between atoms: _336  and  _337
REMARK  145  A    between atoms: _340  and  _342
REMARK  146  A    between atoms: _342  and  _343
REMARK  147  A    between atoms: _342  and  _345
REMARK  148  A    between atoms: _345  and  _346
REMARK  149  A    between atoms: _346  and  _347
REMARK  150  A    between atoms: _350  and  _352
REMARK  151  A    between atoms: _352  and  _353
REMARK  152  A    between atoms: _352  and  _355
REMARK  153  A    between atoms: _355  and  _356
REMARK  154  A    between atoms: _356  and  _357
REMARK  155  A    between atoms: _357  and  _358
REMARK  156  A    between atoms: _358  and  _359
REMARK  157  A    between atoms: _363  and  _365
REMARK  158  A    between atoms: _365  and  _366
REMARK  159  A    between atoms: _365  and  _368
REMARK  160  A    between atoms: _368  and  _369
REMARK                            x       y       z     vdW  Elec       q    Type
REMARK                         _______ _______ _______ _____ _____    ______ ____
ROOT
ATOM      1  O   HOH     1      25.683  46.756   1.386  0.00  0.00    +0.000 OA
ENDROOT
TORSDOF 0
REMARK  Name = ../refined-set-2016/2e91/2e91_pocket.pdb
REMARK  160 active torsions:
REMARK  status: ('A' for Active; 'I' for Inactive)
REMARK    1  A    between atoms: _1  and  _3
REMARK    2  A    between atoms: _3  and  _4
REMARK    3  A    between atoms: _3  and  _6
REMARK    4  A    between atoms: _6  and  _7
REMARK    5  A    between atoms: _12  and  _14
REMARK    6  A    between atoms: _14  and  _15
REMARK    7  A    between atoms: _14  and  _17
REMARK    8  A    between atoms: _17  and  _18
REMARK    9  A    between atoms: _20  and  _22
REMARK   10  A    between atoms: _22  and  _23
REMARK   11  A    between atoms: _22  and  _25
REMARK   12  A    between atoms: _25  and  _26
REMARK   13  A    between atoms: _29  and  _31
REMARK   14  A    between atoms: _31  and  _32
REMARK   15  A    between atoms: _31  and  _34
REMARK   16  A    between atoms: _34  and  _35
REMARK   17  A    between atoms: _38  and  _40
REMARK   18  A    between atoms: _40  and  _41
REMARK   19  A    between atoms: _40  and  _43
REMARK   20  A    between atoms: _43  and  _44
REMARK   21  A    between atoms: _44  and  _45
REMARK   22  A    between atoms: _44  and  _46
REMARK   23  A    between atoms: _45  and  MG_371
REMARK   24  A    between atoms: _46  and  MG_372
REMARK   25  A    between atoms: _47  and  _49
REMARK   26  A    between atoms: _49  and  _50
REMARK   27  A    between atoms: _49  and  _52
REMARK   28  A    between atoms: _52  and  _53
REMARK   29  A    between atoms: _56  and  _58
REMARK   30  A    between atoms: _58  and  _59
REMARK   31  A    between atoms: _58  and  _61
REMARK   32  A    between atoms: _61  and  _62
REMARK   33  A    between atoms: _62  and  _63
REMARK   34  A    between atoms: _66  and  _68
REMARK   35  A    between atoms: _68  and  _69
REMARK   36  A    between atoms: _68  and  _71
REMARK   37  A    between atoms: _71  and  _72
REMARK   38  A    between atoms: _75  and  _77
REMARK   39  A    between atoms: _77  and  _78
REMARK   40  A    between atoms: _81  and  _83
REMARK   41  A    between atoms: _83  and  _84
REMARK   42  A    between atoms: _83  and  _86
REMARK   43  A    between atoms: _86  and  _87
REMARK   44  A    between atoms: _90  and  _92
REMARK   45  A    between atoms: _92  and  _93
REMARK   46  A    between atoms: _92  and  _95
REMARK   47  A    between atoms: _95  and  _96
REMARK   48  A    between atoms: _96  and  _97
REMARK   49  A    between atoms: _97  and  _98
REMARK   50  A    between atoms: _107  and  _109
REMARK   51  A    between atoms: _109  and  _110
REMARK   52  A    between atoms: _109  and  _112
REMARK   53  A    between atoms: _112  and  _113
REMARK   54  A    between atoms: _113  and  _114
REMARK   55  A    between atoms: _114  and  _115
REMARK   56  A    between atoms: _124  and  _126
REMARK   57  A    between atoms: _126  and  _127
REMARK   58  A    between atoms: _126  and  _129
REMARK   59  A    between atoms: _129  and  _130
REMARK   60  A    between atoms: _133  and  _135
REMARK   61  A    between atoms: _135  and  _136
REMARK   62  A    between atoms: _138  and  _140
REMARK   63  A    between atoms: _140  and  _141
REMARK   64  A    between atoms: _140  and  _143
REMARK   65  A    between atoms: _143  and  _144
REMARK   66  A    between atoms: _144  and  _145
REMARK   67  A    between atoms: _150  and  _152
REMARK   68  A    between atoms: _152  and  _153
REMARK   69  A    between atoms: _152  and  _155
REMARK   70  A    between atoms: _155  and  _156
REMARK   71  A    between atoms: _159  and  _161
REMARK   72  A    between atoms: _161  and  _162
REMARK   73  A    between atoms: _161  and  _164
REMARK   74  A    between atoms: _164  and  _165
REMARK   75  A    between atoms: _165  and  _166
REMARK   76  A    between atoms: _166  and  _167
REMARK   77  A    between atoms: _176  and  _178
REMARK   78  A    between atoms: _178  and  _179
REMARK   79  A    between atoms: _178  and  _181
REMARK   80  A    between atoms: _181  and  _182
REMARK   81  A    between atoms: _187  and  _188
REMARK   82  A    between atoms: _190  and  _192
REMARK   83  A    between atoms: _192  and  _193
REMARK   84  A    between atoms: _192  and  _195
REMARK   85  A    between atoms: _195  and  _196
REMARK   86  A    between atoms: _196  and  _197
REMARK   87  A    between atoms: _199  and  _201
REMARK   88  A    between atoms: _201  and  _202
REMARK   89  A    between atoms: _201  and  _204
REMARK   90  A    between atoms: _207  and  _209
REMARK   91  A    between atoms: _209  and  _210
REMARK   92  A    between atoms: _209  and  _212
REMARK   93  A    between atoms: _212  and  _213
REMARK   94  A    between atoms: _218  and  _220
REMARK   95  A    between atoms: _220  and  _221
REMARK   96  A    between atoms: _220  and  _223
REMARK   97  A    between atoms: _223  and  _224
REMARK   98  A    between atoms: _224  and  _225
REMARK   99  A    between atoms: _225  and  _226
REMARK  100  A    between atoms: _226  and  _227
REMARK  101  A    between atoms: _231  and  _233
REMARK  102  A    between atoms: _233  and  _234
REMARK  103  A    between atoms: _233  and  _236
REMARK  104  A    between atoms: _236  and  _237
REMARK  105  A    between atoms: _240  and  _242
REMARK  106  A    between atoms: _242  and  _243
REMARK  107  A    between atoms: _245  and  _247
REMARK  108  A    between atoms: _247  and  _248
REMARK  109  A    between atoms: _250  and  _252
REMARK  110  A    between atoms: _252  and  _253
REMARK  111  A    between atoms: _252  and  _255
REMARK  112  A    between atoms: _255  and  _256
REMARK  113  A    between atoms: _259  and  _261
REMARK  114  A    between atoms: _261  and  _262
REMARK  115  A    between atoms: _261  and  _264
REMARK  116  A    between atoms: _264  and  _265
REMARK  117  A    between atoms: _271  and  _273
REMARK  118  A    between atoms: _273  and  _274
REMARK  119  A    between atoms: _276  and  _278
REMARK  120  A    between atoms: _278  and  _279
REMARK  121  A    between atoms: _278  and  _281
REMARK  122  A    between atoms: _281  and  _282
REMARK  123  A    between atoms: _287  and  _288
REMARK  124  A    between atoms: _290  and  _292
REMARK  125  A    between atoms: _292  and  _293
REMARK  126  A    between atoms: _292  and  _295
REMARK  127  A    between atoms: _295  and  _296
REMARK  128  A    between atoms: _296  and  _297
REMARK  129  A    between atoms: _302  and  _304
REMARK  130  A    between atoms: _304  and  _305
REMARK  131  A    between atoms: _304  and  _307
REMARK  132  A    between atoms: _307  and  _308
REMARK  133  A    between atoms: _311  and  _313
REMARK  134  A    between atoms: _313  and  _314
REMARK  135  A    between atoms: _313  and  _316
REMARK  136  A    between atoms: _316  and  _317
REMARK  137  A    between atoms: _320  and  _322
REMARK  138  A    between atoms: _322  and  _323
REMARK  139  A    between atoms: _322  and  _325
REMARK  140  A    between atoms: _325  and  _326
REMARK  141  A    between atoms: _331  and  _333
REMARK  142  A    between atoms: _333  and  _334
REMARK  143  A    between atoms: _333  and  _336
REMARK  144  A    between atoms: _336  and  _337
REMARK  145  A    between atoms: _340  and  _342
REMARK  146  A    between atoms: _342  and  _343
REMARK  147  A    between atoms: _342  and  _345
REMARK  148  A    between atoms: _345  and  _346
REMARK  149  A    between atoms: _346  and  _347
REMARK  150  A    between atoms: _350  and  _352
REMARK  151  A    between atoms: _352  and  _353
REMARK  152  A    between atoms: _352  and  _355
REMARK  153  A    between atoms: _355  and  _356
REMARK  154  A    between atoms: _356  and  _357
REMARK  155  A    between atoms: _357  and  _358
REMARK  156  A    between atoms: _358  and  _359
REMARK  157  A    between atoms: _363  and  _365
REMARK  158  A    between atoms: _365  and  _366
REMARK  159  A    between atoms: _365  and  _368
REMARK  160  A    between atoms: _368  and  _369
REMARK                            x       y       z     vdW  Elec       q    Type
REMARK                         _______ _______ _______ _____ _____    ______ ____
ROOT
ATOM      1  O   HOH     1      23.182  47.014  -2.294  0.00  0.00    +0.000 OA
ENDROOT
TORSDOF 0
REMARK  Name = ../refined-set-2016/2e91/2e91_pocket.pdb
REMARK  160 active torsions:
REMARK  status: ('A' for Active; 'I' for Inactive)
REMARK    1  A    between atoms: _1  and  _3
REMARK    2  A    between atoms: _3  and  _4
REMARK    3  A    between atoms: _3  and  _6
REMARK    4  A    between atoms: _6  and  _7
REMARK    5  A    between atoms: _12  and  _14
REMARK    6  A    between atoms: _14  and  _15
REMARK    7  A    between atoms: _14  and  _17
REMARK    8  A    between atoms: _17  and  _18
REMARK    9  A    between atoms: _20  and  _22
REMARK   10  A    between atoms: _22  and  _23
REMARK   11  A    between atoms: _22  and  _25
REMARK   12  A    between atoms: _25  and  _26
REMARK   13  A    between atoms: _29  and  _31
REMARK   14  A    between atoms: _31  and  _32
REMARK   15  A    between atoms: _31  and  _34
REMARK   16  A    between atoms: _34  and  _35
REMARK   17  A    between atoms: _38  and  _40
REMARK   18  A    between atoms: _40  and  _41
REMARK   19  A    between atoms: _40  and  _43
REMARK   20  A    between atoms: _43  and  _44
REMARK   21  A    between atoms: _44  and  _45
REMARK   22  A    between atoms: _44  and  _46
REMARK   23  A    between atoms: _45  and  MG_371
REMARK   24  A    between atoms: _46  and  MG_372
REMARK   25  A    between atoms: _47  and  _49
REMARK   26  A    between atoms: _49  and  _50
REMARK   27  A    between atoms: _49  and  _52
REMARK   28  A    between atoms: _52  and  _53
REMARK   29  A    between atoms: _56  and  _58
REMARK   30  A    between atoms: _58  and  _59
REMARK   31  A    between atoms: _58  and  _61
REMARK   32  A    between atoms: _61  and  _62
REMARK   33  A    between atoms: _62  and  _63
REMARK   34  A    between atoms: _66  and  _68
REMARK   35  A    between atoms: _68  and  _69
REMARK   36  A    between atoms: _68  and  _71
REMARK   37  A    between atoms: _71  and  _72
REMARK   38  A    between atoms: _75  and  _77
REMARK   39  A    between atoms: _77  and  _78
REMARK   40  A    between atoms: _81  and  _83
REMARK   41  A    between atoms: _83  and  _84
REMARK   42  A    between atoms: _83  and  _86
REMARK   43  A    between atoms: _86  and  _87
REMARK   44  A    between atoms: _90  and  _92
REMARK   45  A    between atoms: _92  and  _93
REMARK   46  A    between atoms: _92  and  _95
REMARK   47  A    between atoms: _95  and  _96
REMARK   48  A    between atoms: _96  and  _97
REMARK   49  A    between atoms: _97  and  _98
REMARK   50  A    between atoms: _107  and  _109
REMARK   51  A    between atoms: _109  and  _110
REMARK   52  A    between atoms: _109  and  _112
REMARK   53  A    between atoms: _112  and  _113
REMARK   54  A    between atoms: _113  and  _114
REMARK   55  A    between atoms: _114  and  _115
REMARK   56  A    between atoms: _124  and  _126
REMARK   57  A    between atoms: _126  and  _127
REMARK   58  A    between atoms: _126  and  _129
REMARK   59  A    between atoms: _129  and  _130
REMARK   60  A    between atoms: _133  and  _135
REMARK   61  A    between atoms: _135  and  _136
REMARK   62  A    between atoms: _138  and  _140
REMARK   63  A    between atoms: _140  and  _141
REMARK   64  A    between atoms: _140  and  _143
REMARK   65  A    between atoms: _143  and  _144
REMARK   66  A    between atoms: _144  and  _145
REMARK   67  A    between atoms: _150  and  _152
REMARK   68  A    between atoms: _152  and  _153
REMARK   69  A    between atoms: _152  and  _155
REMARK   70  A    between atoms: _155  and  _156
REMARK   71  A    between atoms: _159  and  _161
REMARK   72  A    between atoms: _161  and  _162
REMARK   73  A    between atoms: _161  and  _164
REMARK   74  A    between atoms: _164  and  _165
REMARK   75  A    between atoms: _165  and  _166
REMARK   76  A    between atoms: _166  and  _167
REMARK   77  A    between atoms: _176  and  _178
REMARK   78  A    between atoms: _178  and  _179
REMARK   79  A    between atoms: _178  and  _181
REMARK   80  A    between atoms: _181  and  _182
REMARK   81  A    between atoms: _187  and  _188
REMARK   82  A    between atoms: _190  and  _192
REMARK   83  A    between atoms: _192  and  _193
REMARK   84  A    between atoms: _192  and  _195
REMARK   85  A    between atoms: _195  and  _196
REMARK   86  A    between atoms: _196  and  _197
REMARK   87  A    between atoms: _199  and  _201
REMARK   88  A    between atoms: _201  and  _202
REMARK   89  A    between atoms: _201  and  _204
REMARK   90  A    between atoms: _207  and  _209
REMARK   91  A    between atoms: _209  and  _210
REMARK   92  A    between atoms: _209  and  _212
REMARK   93  A    between atoms: _212  and  _213
REMARK   94  A    between atoms: _218  and  _220
REMARK   95  A    between atoms: _220  and  _221
REMARK   96  A    between atoms: _220  and  _223
REMARK   97  A    between atoms: _223  and  _224
REMARK   98  A    between atoms: _224  and  _225
REMARK   99  A    between atoms: _225  and  _226
REMARK  100  A    between atoms: _226  and  _227
REMARK  101  A    between atoms: _231  and  _233
REMARK  102  A    between atoms: _233  and  _234
REMARK  103  A    between atoms: _233  and  _236
REMARK  104  A    between atoms: _236  and  _237
REMARK  105  A    between atoms: _240  and  _242
REMARK  106  A    between atoms: _242  and  _243
REMARK  107  A    between atoms: _245  and  _247
REMARK  108  A    between atoms: _247  and  _248
REMARK  109  A    between atoms: _250  and  _252
REMARK  110  A    between atoms: _252  and  _253
REMARK  111  A    between atoms: _252  and  _255
REMARK  112  A    between atoms: _255  and  _256
REMARK  113  A    between atoms: _259  and  _261
REMARK  114  A    between atoms: _261  and  _262
REMARK  115  A    between atoms: _261  and  _264
REMARK  116  A    between atoms: _264  and  _265
REMARK  117  A    between atoms: _271  and  _273
REMARK  118  A    between atoms: _273  and  _274
REMARK  119  A    between atoms: _276  and  _278
REMARK  120  A    between atoms: _278  and  _279
REMARK  121  A    between atoms: _278  and  _281
REMARK  122  A    between atoms: _281  and  _282
REMARK  123  A    between atoms: _287  and  _288
REMARK  124  A    between atoms: _290  and  _292
REMARK  125  A    between atoms: _292  and  _293
REMARK  126  A    between atoms: _292  and  _295
REMARK  127  A    between atoms: _295  and  _296
REMARK  128  A    between atoms: _296  and  _297
REMARK  129  A    between atoms: _302  and  _304
REMARK  130  A    between atoms: _304  and  _305
REMARK  131  A    between atoms: _304  and  _307
REMARK  132  A    between atoms: _307  and  _308
REMARK  133  A    between atoms: _311  and  _313
REMARK  134  A    between atoms: _313  and  _314
REMARK  135  A    between atoms: _313  and  _316
REMARK  136  A    between atoms: _316  and  _317
REMARK  137  A    between atoms: _320  and  _322
REMARK  138  A    between atoms: _322  and  _323
REMARK  139  A    between atoms: _322  and  _325
REMARK  140  A    between atoms: _325  and  _326
REMARK  141  A    between atoms: _331  and  _333
REMARK  142  A    between atoms: _333  and  _334
REMARK  143  A    between atoms: _333  and  _336
REMARK  144  A    between atoms: _336  and  _337
REMARK  145  A    between atoms: _340  and  _342
REMARK  146  A    between atoms: _342  and  _343
REMARK  147  A    between atoms: _342  and  _345
REMARK  148  A    between atoms: _345  and  _346
REMARK  149  A    between atoms: _346  and  _347
REMARK  150  A    between atoms: _350  and  _352
REMARK  151  A    between atoms: _352  and  _353
REMARK  152  A    between atoms: _352  and  _355
REMARK  153  A    between atoms: _355  and  _356
REMARK  154  A    between atoms: _356  and  _357
REMARK  155  A    between atoms: _357  and  _358
REMARK  156  A    between atoms: _358  and  _359
REMARK  157  A    between atoms: _363  and  _365
REMARK  158  A    between atoms: _365  and  _366
REMARK  159  A    between atoms: _365  and  _368
REMARK  160  A    between atoms: _368  and  _369
REMARK                            x       y       z     vdW  Elec       q    Type
REMARK                         _______ _______ _______ _____ _____    ______ ____
ROOT
ATOM      1  O   HOH     1      34.058  50.285   8.156  0.00  0.00    +0.000 OA
ENDROOT
TORSDOF 0
REMARK  Name = ../refined-set-2016/2e91/2e91_pocket.pdb
REMARK  160 active torsions:
REMARK  status: ('A' for Active; 'I' for Inactive)
REMARK    1  A    between atoms: _1  and  _3
REMARK    2  A    between atoms: _3  and  _4
REMARK    3  A    between atoms: _3  and  _6
REMARK    4  A    between atoms: _6  and  _7
REMARK    5  A    between atoms: _12  and  _14
REMARK    6  A    between atoms: _14  and  _15
REMARK    7  A    between atoms: _14  and  _17
REMARK    8  A    between atoms: _17  and  _18
REMARK    9  A    between atoms: _20  and  _22
REMARK   10  A    between atoms: _22  and  _23
REMARK   11  A    between atoms: _22  and  _25
REMARK   12  A    between atoms: _25  and  _26
REMARK   13  A    between atoms: _29  and  _31
REMARK   14  A    between atoms: _31  and  _32
REMARK   15  A    between atoms: _31  and  _34
REMARK   16  A    between atoms: _34  and  _35
REMARK   17  A    between atoms: _38  and  _40
REMARK   18  A    between atoms: _40  and  _41
REMARK   19  A    between atoms: _40  and  _43
REMARK   20  A    between atoms: _43  and  _44
REMARK   21  A    between atoms: _44  and  _45
REMARK   22  A    between atoms: _44  and  _46
REMARK   23  A    between atoms: _45  and  MG_371
REMARK   24  A    between atoms: _46  and  MG_372
REMARK   25  A    between atoms: _47  and  _49
REMARK   26  A    between atoms: _49  and  _50
REMARK   27  A    between atoms: _49  and  _52
REMARK   28  A    between atoms: _52  and  _53
REMARK   29  A    between atoms: _56  and  _58
REMARK   30  A    between atoms: _58  and  _59
REMARK   31  A    between atoms: _58  and  _61
REMARK   32  A    between atoms: _61  and  _62
REMARK   33  A    between atoms: _62  and  _63
REMARK   34  A    between atoms: _66  and  _68
REMARK   35  A    between atoms: _68  and  _69
REMARK   36  A    between atoms: _68  and  _71
REMARK   37  A    between atoms: _71  and  _72
REMARK   38  A    between atoms: _75  and  _77
REMARK   39  A    between atoms: _77  and  _78
REMARK   40  A    between atoms: _81  and  _83
REMARK   41  A    between atoms: _83  and  _84
REMARK   42  A    between atoms: _83  and  _86
REMARK   43  A    between atoms: _86  and  _87
REMARK   44  A    between atoms: _90  and  _92
REMARK   45  A    between atoms: _92  and  _93
REMARK   46  A    between atoms: _92  and  _95
REMARK   47  A    between atoms: _95  and  _96
REMARK   48  A    between atoms: _96  and  _97
REMARK   49  A    between atoms: _97  and  _98
REMARK   50  A    between atoms: _107  and  _109
REMARK   51  A    between atoms: _109  and  _110
REMARK   52  A    between atoms: _109  and  _112
REMARK   53  A    between atoms: _112  and  _113
REMARK   54  A    between atoms: _113  and  _114
REMARK   55  A    between atoms: _114  and  _115
REMARK   56  A    between atoms: _124  and  _126
REMARK   57  A    between atoms: _126  and  _127
REMARK   58  A    between atoms: _126  and  _129
REMARK   59  A    between atoms: _129  and  _130
REMARK   60  A    between atoms: _133  and  _135
REMARK   61  A    between atoms: _135  and  _136
REMARK   62  A    between atoms: _138  and  _140
REMARK   63  A    between atoms: _140  and  _141
REMARK   64  A    between atoms: _140  and  _143
REMARK   65  A    between atoms: _143  and  _144
REMARK   66  A    between atoms: _144  and  _145
REMARK   67  A    between atoms: _150  and  _152
REMARK   68  A    between atoms: _152  and  _153
REMARK   69  A    between atoms: _152  and  _155
REMARK   70  A    between atoms: _155  and  _156
REMARK   71  A    between atoms: _159  and  _161
REMARK   72  A    between atoms: _161  and  _162
REMARK   73  A    between atoms: _161  and  _164
REMARK   74  A    between atoms: _164  and  _165
REMARK   75  A    between atoms: _165  and  _166
REMARK   76  A    between atoms: _166  and  _167
REMARK   77  A    between atoms: _176  and  _178
REMARK   78  A    between atoms: _178  and  _179
REMARK   79  A    between atoms: _178  and  _181
REMARK   80  A    between atoms: _181  and  _182
REMARK   81  A    between atoms: _187  and  _188
REMARK   82  A    between atoms: _190  and  _192
REMARK   83  A    between atoms: _192  and  _193
REMARK   84  A    between atoms: _192  and  _195
REMARK   85  A    between atoms: _195  and  _196
REMARK   86  A    between atoms: _196  and  _197
REMARK   87  A    between atoms: _199  and  _201
REMARK   88  A    between atoms: _201  and  _202
REMARK   89  A    between atoms: _201  and  _204
REMARK   90  A    between atoms: _207  and  _209
REMARK   91  A    between atoms: _209  and  _210
REMARK   92  A    between atoms: _209  and  _212
REMARK   93  A    between atoms: _212  and  _213
REMARK   94  A    between atoms: _218  and  _220
REMARK   95  A    between atoms: _220  and  _221
REMARK   96  A    between atoms: _220  and  _223
REMARK   97  A    between atoms: _223  and  _224
REMARK   98  A    between atoms: _224  and  _225
REMARK   99  A    between atoms: _225  and  _226
REMARK  100  A    between atoms: _226  and  _227
REMARK  101  A    between atoms: _231  and  _233
REMARK  102  A    between atoms: _233  and  _234
REMARK  103  A    between atoms: _233  and  _236
REMARK  104  A    between atoms: _236  and  _237
REMARK  105  A    between atoms: _240  and  _242
REMARK  106  A    between atoms: _242  and  _243
REMARK  107  A    between atoms: _245  and  _247
REMARK  108  A    between atoms: _247  and  _248
REMARK  109  A    between atoms: _250  and  _252
REMARK  110  A    between atoms: _252  and  _253
REMARK  111  A    between atoms: _252  and  _255
REMARK  112  A    between atoms: _255  and  _256
REMARK  113  A    between atoms: _259  and  _261
REMARK  114  A    between atoms: _261  and  _262
REMARK  115  A    between atoms: _261  and  _264
REMARK  116  A    between atoms: _264  and  _265
REMARK  117  A    between atoms: _271  and  _273
REMARK  118  A    between atoms: _273  and  _274
REMARK  119  A    between atoms: _276  and  _278
REMARK  120  A    between atoms: _278  and  _279
REMARK  121  A    between atoms: _278  and  _281
REMARK  122  A    between atoms: _281  and  _282
REMARK  123  A    between atoms: _287  and  _288
REMARK  124  A    between atoms: _290  and  _292
REMARK  125  A    between atoms: _292  and  _293
REMARK  126  A    between atoms: _292  and  _295
REMARK  127  A    between atoms: _295  and  _296
REMARK  128  A    between atoms: _296  and  _297
REMARK  129  A    between atoms: _302  and  _304
REMARK  130  A    between atoms: _304  and  _305
REMARK  131  A    between atoms: _304  and  _307
REMARK  132  A    between atoms: _307  and  _308
REMARK  133  A    between atoms: _311  and  _313
REMARK  134  A    between atoms: _313  and  _314
REMARK  135  A    between atoms: _313  and  _316
REMARK  136  A    between atoms: _316  and  _317
REMARK  137  A    between atoms: _320  and  _322
REMARK  138  A    between atoms: _322  and  _323
REMARK  139  A    between atoms: _322  and  _325
REMARK  140  A    between atoms: _325  and  _326
REMARK  141  A    between atoms: _331  and  _333
REMARK  142  A    between atoms: _333  and  _334
REMARK  143  A    between atoms: _333  and  _336
REMARK  144  A    between atoms: _336  and  _337
REMARK  145  A    between atoms: _340  and  _342
REMARK  146  A    between atoms: _342  and  _343
REMARK  147  A    between atoms: _342  and  _345
REMARK  148  A    between atoms: _345  and  _346
REMARK  149  A    between atoms: _346  and  _347
REMARK  150  A    between atoms: _350  and  _352
REMARK  151  A    between atoms: _352  and  _353
REMARK  152  A    between atoms: _352  and  _355
REMARK  153  A    between atoms: _355  and  _356
REMARK  154  A    between atoms: _356  and  _357
REMARK  155  A    between atoms: _357  and  _358
REMARK  156  A    between atoms: _358  and  _359
REMARK  157  A    between atoms: _363  and  _365
REMARK  158  A    between atoms: _365  and  _366
REMARK  159  A    between atoms: _365  and  _368
REMARK  160  A    between atoms: _368  and  _369
REMARK                            x       y       z     vdW  Elec       q    Type
REMARK                         _______ _______ _______ _____ _____    ______ ____
ROOT
ATOM      1  O   HOH     1      20.361  47.998   4.542  0.00  0.00    +0.000 OA
ENDROOT
TORSDOF 0
REMARK  Name = ../refined-set-2016/2e91/2e91_pocket.pdb
REMARK  160 active torsions:
REMARK  status: ('A' for Active; 'I' for Inactive)
REMARK    1  A    between atoms: _1  and  _3
REMARK    2  A    between atoms: _3  and  _4
REMARK    3  A    between atoms: _3  and  _6
REMARK    4  A    between atoms: _6  and  _7
REMARK    5  A    between atoms: _12  and  _14
REMARK    6  A    between atoms: _14  and  _15
REMARK    7  A    between atoms: _14  and  _17
REMARK    8  A    between atoms: _17  and  _18
REMARK    9  A    between atoms: _20  and  _22
REMARK   10  A    between atoms: _22  and  _23
REMARK   11  A    between atoms: _22  and  _25
REMARK   12  A    between atoms: _25  and  _26
REMARK   13  A    between atoms: _29  and  _31
REMARK   14  A    between atoms: _31  and  _32
REMARK   15  A    between atoms: _31  and  _34
REMARK   16  A    between atoms: _34  and  _35
REMARK   17  A    between atoms: _38  and  _40
REMARK   18  A    between atoms: _40  and  _41
REMARK   19  A    between atoms: _40  and  _43
REMARK   20  A    between atoms: _43  and  _44
REMARK   21  A    between atoms: _44  and  _45
REMARK   22  A    between atoms: _44  and  _46
REMARK   23  A    between atoms: _45  and  MG_371
REMARK   24  A    between atoms: _46  and  MG_372
REMARK   25  A    between atoms: _47  and  _49
REMARK   26  A    between atoms: _49  and  _50
REMARK   27  A    between atoms: _49  and  _52
REMARK   28  A    between atoms: _52  and  _53
REMARK   29  A    between atoms: _56  and  _58
REMARK   30  A    between atoms: _58  and  _59
REMARK   31  A    between atoms: _58  and  _61
REMARK   32  A    between atoms: _61  and  _62
REMARK   33  A    between atoms: _62  and  _63
REMARK   34  A    between atoms: _66  and  _68
REMARK   35  A    between atoms: _68  and  _69
REMARK   36  A    between atoms: _68  and  _71
REMARK   37  A    between atoms: _71  and  _72
REMARK   38  A    between atoms: _75  and  _77
REMARK   39  A    between atoms: _77  and  _78
REMARK   40  A    between atoms: _81  and  _83
REMARK   41  A    between atoms: _83  and  _84
REMARK   42  A    between atoms: _83  and  _86
REMARK   43  A    between atoms: _86  and  _87
REMARK   44  A    between atoms: _90  and  _92
REMARK   45  A    between atoms: _92  and  _93
REMARK   46  A    between atoms: _92  and  _95
REMARK   47  A    between atoms: _95  and  _96
REMARK   48  A    between atoms: _96  and  _97
REMARK   49  A    between atoms: _97  and  _98
REMARK   50  A    between atoms: _107  and  _109
REMARK   51  A    between atoms: _109  and  _110
REMARK   52  A    between atoms: _109  and  _112
REMARK   53  A    between atoms: _112  and  _113
REMARK   54  A    between atoms: _113  and  _114
REMARK   55  A    between atoms: _114  and  _115
REMARK   56  A    between atoms: _124  and  _126
REMARK   57  A    between atoms: _126  and  _127
REMARK   58  A    between atoms: _126  and  _129
REMARK   59  A    between atoms: _129  and  _130
REMARK   60  A    between atoms: _133  and  _135
REMARK   61  A    between atoms: _135  and  _136
REMARK   62  A    between atoms: _138  and  _140
REMARK   63  A    between atoms: _140  and  _141
REMARK   64  A    between atoms: _140  and  _143
REMARK   65  A    between atoms: _143  and  _144
REMARK   66  A    between atoms: _144  and  _145
REMARK   67  A    between atoms: _150  and  _152
REMARK   68  A    between atoms: _152  and  _153
REMARK   69  A    between atoms: _152  and  _155
REMARK   70  A    between atoms: _155  and  _156
REMARK   71  A    between atoms: _159  and  _161
REMARK   72  A    between atoms: _161  and  _162
REMARK   73  A    between atoms: _161  and  _164
REMARK   74  A    between atoms: _164  and  _165
REMARK   75  A    between atoms: _165  and  _166
REMARK   76  A    between atoms: _166  and  _167
REMARK   77  A    between atoms: _176  and  _178
REMARK   78  A    between atoms: _178  and  _179
REMARK   79  A    between atoms: _178  and  _181
REMARK   80  A    between atoms: _181  and  _182
REMARK   81  A    between atoms: _187  and  _188
REMARK   82  A    between atoms: _190  and  _192
REMARK   83  A    between atoms: _192  and  _193
REMARK   84  A    between atoms: _192  and  _195
REMARK   85  A    between atoms: _195  and  _196
REMARK   86  A    between atoms: _196  and  _197
REMARK   87  A    between atoms: _199  and  _201
REMARK   88  A    between atoms: _201  and  _202
REMARK   89  A    between atoms: _201  and  _204
REMARK   90  A    between atoms: _207  and  _209
REMARK   91  A    between atoms: _209  and  _210
REMARK   92  A    between atoms: _209  and  _212
REMARK   93  A    between atoms: _212  and  _213
REMARK   94  A    between atoms: _218  and  _220
REMARK   95  A    between atoms: _220  and  _221
REMARK   96  A    between atoms: _220  and  _223
REMARK   97  A    between atoms: _223  and  _224
REMARK   98  A    between atoms: _224  and  _225
REMARK   99  A    between atoms: _225  and  _226
REMARK  100  A    between atoms: _226  and  _227
REMARK  101  A    between atoms: _231  and  _233
REMARK  102  A    between atoms: _233  and  _234
REMARK  103  A    between atoms: _233  and  _236
REMARK  104  A    between atoms: _236  and  _237
REMARK  105  A    between atoms: _240  and  _242
REMARK  106  A    between atoms: _242  and  _243
REMARK  107  A    between atoms: _245  and  _247
REMARK  108  A    between atoms: _247  and  _248
REMARK  109  A    between atoms: _250  and  _252
REMARK  110  A    between atoms: _252  and  _253
REMARK  111  A    between atoms: _252  and  _255
REMARK  112  A    between atoms: _255  and  _256
REMARK  113  A    between atoms: _259  and  _261
REMARK  114  A    between atoms: _261  and  _262
REMARK  115  A    between atoms: _261  and  _264
REMARK  116  A    between atoms: _264  and  _265
REMARK  117  A    between atoms: _271  and  _273
REMARK  118  A    between atoms: _273  and  _274
REMARK  119  A    between atoms: _276  and  _278
REMARK  120  A    between atoms: _278  and  _279
REMARK  121  A    between atoms: _278  and  _281
REMARK  122  A    between atoms: _281  and  _282
REMARK  123  A    between atoms: _287  and  _288
REMARK  124  A    between atoms: _290  and  _292
REMARK  125  A    between atoms: _292  and  _293
REMARK  126  A    between atoms: _292  and  _295
REMARK  127  A    between atoms: _295  and  _296
REMARK  128  A    between atoms: _296  and  _297
REMARK  129  A    between atoms: _302  and  _304
REMARK  130  A    between atoms: _304  and  _305
REMARK  131  A    between atoms: _304  and  _307
REMARK  132  A    between atoms: _307  and  _308
REMARK  133  A    between atoms: _311  and  _313
REMARK  134  A    between atoms: _313  and  _314
REMARK  135  A    between atoms: _313  and  _316
REMARK  136  A    between atoms: _316  and  _317
REMARK  137  A    between atoms: _320  and  _322
REMARK  138  A    between atoms: _322  and  _323
REMARK  139  A    between atoms: _322  and  _325
REMARK  140  A    between atoms: _325  and  _326
REMARK  141  A    between atoms: _331  and  _333
REMARK  142  A    between atoms: _333  and  _334
REMARK  143  A    between atoms: _333  and  _336
REMARK  144  A    between atoms: _336  and  _337
REMARK  145  A    between atoms: _340  and  _342
REMARK  146  A    between atoms: _342  and  _343
REMARK  147  A    between atoms: _342  and  _345
REMARK  148  A    between atoms: _345  and  _346
REMARK  149  A    between atoms: _346  and  _347
REMARK  150  A    between atoms: _350  and  _352
REMARK  151  A    between atoms: _352  and  _353
REMARK  152  A    between atoms: _352  and  _355
REMARK  153  A    between atoms: _355  and  _356
REMARK  154  A    between atoms: _356  and  _357
REMARK  155  A    between atoms: _357  and  _358
REMARK  156  A    between atoms: _358  and  _359
REMARK  157  A    between atoms: _363  and  _365
REMARK  158  A    between atoms: _365  and  _366
REMARK  159  A    between atoms: _365  and  _368
REMARK  160  A    between atoms: _368  and  _369
REMARK                            x       y       z     vdW  Elec       q    Type
REMARK                         _______ _______ _______ _____ _____    ______ ____
ROOT
ATOM      1  O   HOH     1      25.239  42.674  15.583  0.00  0.00    +0.000 OA
ENDROOT
TORSDOF 0
