REMARK  Name = ../refined-set-2016/4xt2/4xt2_pocket.pdb
REMARK  254 active torsions:
REMARK  status: ('A' for Active; 'I' for Inactive)
REMARK    1  A    between atoms: _1  and  _3
REMARK    2  A    between atoms: _3  and  _4
REMARK    3  A    between atoms: _3  and  _6
REMARK    4  A    between atoms: _6  and  _7
REMARK    5  A    between atoms: _13  and  _15
REMARK    6  A    between atoms: _15  and  _16
REMARK    7  A    between atoms: _15  and  _18
REMARK    8  A    between atoms: _18  and  _19
REMARK    9  A    between atoms: _22  and  _24
REMARK   10  A    between atoms: _24  and  _25
REMARK   11  A    between atoms: _24  and  _27
REMARK   12  A    between atoms: _27  and  _28
REMARK   13  A    between atoms: _30  and  _32
REMARK   14  A    between atoms: _32  and  _33
REMARK   15  A    between atoms: _32  and  _35
REMARK   16  A    between atoms: _35  and  _36
REMARK   17  A    between atoms: _36  and  _37
REMARK   18  A    between atoms: _40  and  _42
REMARK   19  A    between atoms: _42  and  _43
REMARK   20  A    between atoms: _42  and  _45
REMARK   21  A    between atoms: _45  and  _46
REMARK   22  A    between atoms: _51  and  _53
REMARK   23  A    between atoms: _53  and  _54
REMARK   24  A    between atoms: _53  and  _56
REMARK   25  A    between atoms: _56  and  _57
REMARK   26  A    between atoms: _59  and  _61
REMARK   27  A    between atoms: _61  and  _62
REMARK   28  A    between atoms: _61  and  _64
REMARK   29  A    between atoms: _64  and  _65
REMARK   30  A    between atoms: _65  and  _66
REMARK   31  A    between atoms: _68  and  _70
REMARK   32  A    between atoms: _70  and  _71
REMARK   33  A    between atoms: _70  and  _73
REMARK   34  A    between atoms: _73  and  _74
REMARK   35  A    between atoms: _77  and  _79
REMARK   36  A    between atoms: _79  and  _80
REMARK   37  A    between atoms: _79  and  _82
REMARK   38  A    between atoms: _82  and  _83
REMARK   39  A    between atoms: _83  and  _84
REMARK   40  A    between atoms: _86  and  _88
REMARK   41  A    between atoms: _88  and  _89
REMARK   42  A    between atoms: _88  and  _91
REMARK   43  A    between atoms: _91  and  _92
REMARK   44  A    between atoms: _92  and  _93
REMARK   45  A    between atoms: _93  and  _94
REMARK   46  A    between atoms: _94  and  _95
REMARK   47  A    between atoms: _99  and  _101
REMARK   48  A    between atoms: _101  and  _102
REMARK   49  A    between atoms: _101  and  _104
REMARK   50  A    between atoms: _104  and  _105
REMARK   51  A    between atoms: _111  and  _113
REMARK   52  A    between atoms: _113  and  _114
REMARK   53  A    between atoms: _113  and  _116
REMARK   54  A    between atoms: _116  and  _117
REMARK   55  A    between atoms: _120  and  _122
REMARK   56  A    between atoms: _122  and  _123
REMARK   57  A    between atoms: _122  and  _125
REMARK   58  A    between atoms: _125  and  _126
REMARK   59  A    between atoms: _131  and  _132
REMARK   60  A    between atoms: _134  and  _136
REMARK   61  A    between atoms: _136  and  _137
REMARK   62  A    between atoms: _136  and  _139
REMARK   63  A    between atoms: _141  and  _143
REMARK   64  A    between atoms: _143  and  _144
REMARK   65  A    between atoms: _143  and  _146
REMARK   66  A    between atoms: _146  and  _147
REMARK   67  A    between atoms: _150  and  _152
REMARK   68  A    between atoms: _152  and  _153
REMARK   69  A    between atoms: _152  and  _155
REMARK   70  A    between atoms: _155  and  _156
REMARK   71  A    between atoms: _159  and  _161
REMARK   72  A    between atoms: _161  and  _162
REMARK   73  A    between atoms: _161  and  _164
REMARK   74  A    between atoms: _164  and  _165
REMARK   75  A    between atoms: _170  and  _171
REMARK   76  A    between atoms: _173  and  _175
REMARK   77  A    between atoms: _175  and  _176
REMARK   78  A    between atoms: _175  and  _178
REMARK   79  A    between atoms: _178  and  _179
REMARK   80  A    between atoms: _182  and  _184
REMARK   81  A    between atoms: _184  and  _185
REMARK   82  A    between atoms: _184  and  _187
REMARK   83  A    between atoms: _187  and  _188
REMARK   84  A    between atoms: _188  and  _189
REMARK   85  A    between atoms: _189  and  _190
REMARK   86  A    between atoms: _199  and  _201
REMARK   87  A    between atoms: _201  and  _202
REMARK   88  A    between atoms: _201  and  _204
REMARK   89  A    between atoms: _204  and  _205
REMARK   90  A    between atoms: _207  and  _209
REMARK   91  A    between atoms: _209  and  _210
REMARK   92  A    between atoms: _213  and  _215
REMARK   93  A    between atoms: _215  and  _216
REMARK   94  A    between atoms: _215  and  _218
REMARK   95  A    between atoms: _218  and  _219
REMARK   96  A    between atoms: _224  and  _225
REMARK   97  A    between atoms: _227  and  _229
REMARK   98  A    between atoms: _229  and  _230
REMARK   99  A    between atoms: _229  and  _232
REMARK  100  A    between atoms: _232  and  _233
REMARK  101  A    between atoms: _233  and  _234
REMARK  102  A    between atoms: _237  and  _239
REMARK  103  A    between atoms: _239  and  _240
REMARK  104  A    between atoms: _239  and  _242
REMARK  105  A    between atoms: _242  and  _243
REMARK  106  A    between atoms: _249  and  _251
REMARK  107  A    between atoms: _251  and  _252
REMARK  108  A    between atoms: _251  and  _254
REMARK  109  A    between atoms: _254  and  _255
REMARK  110  A    between atoms: _260  and  _261
REMARK  111  A    between atoms: _263  and  _265
REMARK  112  A    between atoms: _265  and  _266
REMARK  113  A    between atoms: _265  and  _268
REMARK  114  A    between atoms: _268  and  _269
REMARK  115  A    between atoms: _274  and  _276
REMARK  116  A    between atoms: _276  and  _277
REMARK  117  A    between atoms: _276  and  _279
REMARK  118  A    between atoms: _279  and  _280
REMARK  119  A    between atoms: _285  and  _287
REMARK  120  A    between atoms: _287  and  _288
REMARK  121  A    between atoms: _287  and  _290
REMARK  122  A    between atoms: _290  and  _291
REMARK  123  A    between atoms: _291  and  _292
REMARK  124  A    between atoms: _294  and  _296
REMARK  125  A    between atoms: _296  and  _297
REMARK  126  A    between atoms: _296  and  _299
REMARK  127  A    between atoms: _299  and  _300
REMARK  128  A    between atoms: _303  and  _305
REMARK  129  A    between atoms: _305  and  _306
REMARK  130  A    between atoms: _305  and  _308
REMARK  131  A    between atoms: _308  and  _309
REMARK  132  A    between atoms: _309  and  _310
REMARK  133  A    between atoms: _310  and  _311
REMARK  134  A    between atoms: _311  and  _312
REMARK  135  A    between atoms: _316  and  _318
REMARK  136  A    between atoms: _318  and  _319
REMARK  137  A    between atoms: _318  and  _321
REMARK  138  A    between atoms: _321  and  _322
REMARK  139  A    between atoms: _324  and  _326
REMARK  140  A    between atoms: _326  and  _327
REMARK  141  A    between atoms: _326  and  _329
REMARK  142  A    between atoms: _329  and  _330
REMARK  143  A    between atoms: _335  and  _337
REMARK  144  A    between atoms: _337  and  _338
REMARK  145  A    between atoms: _337  and  _340
REMARK  146  A    between atoms: _340  and  _341
REMARK  147  A    between atoms: _341  and  _342
REMARK  148  A    between atoms: _347  and  _349
REMARK  149  A    between atoms: _349  and  _350
REMARK  150  A    between atoms: _349  and  _352
REMARK  151  A    between atoms: _352  and  _353
REMARK  152  A    between atoms: _358  and  _360
REMARK  153  A    between atoms: _360  and  _361
REMARK  154  A    between atoms: _360  and  _363
REMARK  155  A    between atoms: _363  and  _364
REMARK  156  A    between atoms: _367  and  _369
REMARK  157  A    between atoms: _369  and  _370
REMARK  158  A    between atoms: _369  and  _372
REMARK  159  A    between atoms: _374  and  _376
REMARK  160  A    between atoms: _376  and  _377
REMARK  161  A    between atoms: _379  and  _381
REMARK  162  A    between atoms: _381  and  _382
REMARK  163  A    between atoms: _381  and  _384
REMARK  164  A    between atoms: _384  and  _385
REMARK  165  A    between atoms: _385  and  _386
REMARK  166  A    between atoms: _391  and  _393
REMARK  167  A    between atoms: _393  and  _394
REMARK  168  A    between atoms: _393  and  _396
REMARK  169  A    between atoms: _399  and  _401
REMARK  170  A    between atoms: _401  and  _402
REMARK  171  A    between atoms: _401  and  _404
REMARK  172  A    between atoms: _407  and  _409
REMARK  173  A    between atoms: _409  and  _410
REMARK  174  A    between atoms: _409  and  _412
REMARK  175  A    between atoms: _412  and  _413
REMARK  176  A    between atoms: _415  and  _417
REMARK  177  A    between atoms: _417  and  _418
REMARK  178  A    between atoms: _420  and  _422
REMARK  179  A    between atoms: _422  and  _423
REMARK  180  A    between atoms: _422  and  _425
REMARK  181  A    between atoms: _425  and  _426
REMARK  182  A    between atoms: _431  and  _432
REMARK  183  A    between atoms: _434  and  _436
REMARK  184  A    between atoms: _436  and  _437
REMARK  185  A    between atoms: _436  and  _439
REMARK  186  A    between atoms: _439  and  _440
REMARK  187  A    between atoms: _440  and  _441
REMARK  188  A    between atoms: _441  and  _442
REMARK  189  A    between atoms: _451  and  _453
REMARK  190  A    between atoms: _453  and  _454
REMARK  191  A    between atoms: _453  and  _456
REMARK  192  A    between atoms: _456  and  _457
REMARK  193  A    between atoms: _457  and  _458
REMARK  194  A    between atoms: _460  and  _462
REMARK  195  A    between atoms: _462  and  _463
REMARK  196  A    between atoms: _462  and  _465
REMARK  197  A    between atoms: _465  and  _466
REMARK  198  A    between atoms: _469  and  _471
REMARK  199  A    between atoms: _471  and  _472
REMARK  200  A    between atoms: _471  and  _474
REMARK  201  A    between atoms: _477  and  _479
REMARK  202  A    between atoms: _479  and  _480
REMARK  203  A    between atoms: _479  and  _482
REMARK  204  A    between atoms: _482  and  _483
REMARK  205  A    between atoms: _486  and  _488
REMARK  206  A    between atoms: _488  and  _489
REMARK  207  A    between atoms: _488  and  _491
REMARK  208  A    between atoms: _491  and  _492
REMARK  209  A    between atoms: _492  and  _493
REMARK  210  A    between atoms: _496  and  _498
REMARK  211  A    between atoms: _498  and  _499
REMARK  212  A    between atoms: _498  and  _501
REMARK  213  A    between atoms: _501  and  _502
REMARK  214  A    between atoms: _505  and  _507
REMARK  215  A    between atoms: _507  and  _508
REMARK  216  A    between atoms: _507  and  _510
REMARK  217  A    between atoms: _510  and  _511
REMARK  218  A    between atoms: _511  and  _512
REMARK  219  A    between atoms: _517  and  _519
REMARK  220  A    between atoms: _519  and  _520
REMARK  221  A    between atoms: _522  and  _524
REMARK  222  A    between atoms: _524  and  _525
REMARK  223  A    between atoms: _524  and  _527
REMARK  224  A    between atoms: _527  and  _528
REMARK  225  A    between atoms: _531  and  _533
REMARK  226  A    between atoms: _533  and  _534
REMARK  227  A    between atoms: _533  and  _536
REMARK  228  A    between atoms: _539  and  _541
REMARK  229  A    between atoms: _541  and  _542
REMARK  230  A    between atoms: _541  and  _544
REMARK  231  A    between atoms: _546  and  _548
REMARK  232  A    between atoms: _548  and  _549
REMARK  233  A    between atoms: _548  and  _551
REMARK  234  A    between atoms: _551  and  _552
REMARK  235  A    between atoms: _555  and  _557
REMARK  236  A    between atoms: _557  and  _558
REMARK  237  A    between atoms: _557  and  _560
REMARK  238  A    between atoms: _560  and  _561
REMARK  239  A    between atoms: _561  and  _562
REMARK  240  A    between atoms: _564  and  _566
REMARK  241  A    between atoms: _566  and  _567
REMARK  242  A    between atoms: _566  and  _569
REMARK  243  A    between atoms: _571  and  _573
REMARK  244  A    between atoms: _573  and  _574
REMARK  245  A    between atoms: _573  and  _576
REMARK  246  A    between atoms: _579  and  _581
REMARK  247  A    between atoms: _581  and  _582
REMARK  248  A    between atoms: _581  and  _584
REMARK  249  A    between atoms: _584  and  _585
REMARK  250  A    between atoms: _590  and  _592
REMARK  251  A    between atoms: _592  and  _593
REMARK  252  A    between atoms: _592  and  _595
REMARK  253  A    between atoms: _595  and  _596
REMARK  254  A    between atoms: _601  and  _602
REMARK                            x       y       z     vdW  Elec       q    Type
REMARK                         _______ _______ _______ _____ _____    ______ ____
ROOT
ATOM      1  CA  ASP A   8      16.771   6.214  21.722  0.00  0.00    +0.160 C 
ENDROOT
BRANCH   1   2
ATOM      2  C   ASP A   8      15.348   6.012  22.251  0.00  0.00    +0.241 C 
ATOM      3  N   MET A   9      15.136   4.883  22.925  0.00  0.00    -0.297 N 
ATOM      4  H   MET A   9      15.843   4.124  22.852  0.00  0.00    +0.150 HD
ATOM      5  O   ASP A   8      14.469   6.841  22.031  0.00  0.00    -0.273 OA
BRANCH   3   6
ATOM      6  CA  MET A   9      13.954   4.656  23.766  0.00  0.00    +0.149 C 
BRANCH   6   7
ATOM      7  C   MET A   9      12.643   4.455  23.009  0.00  0.00    +0.241 C 
ATOM      8  O   MET A   9      11.557   4.632  23.575  0.00  0.00    -0.273 OA
ATOM      9  N   LYS A  10      12.737   4.056  21.743  0.00  0.00    -0.297 N 
ATOM     10  H   LYS A  10      13.675   3.970  21.303  0.00  0.00    +0.150 HD
BRANCH   9  11
ATOM     11  CA  LYS A  10      11.554   3.739  20.965  0.00  0.00    +0.149 C 
BRANCH  11  12
ATOM     12  C   LYS A  10      11.327   2.235  20.882  0.00  0.00    +0.241 C 
ATOM     13  N   PHE A  11      10.062   1.832  20.917  0.00  0.00    -0.297 N 
ATOM     14  H   PHE A  11       9.317   2.529  21.119  0.00  0.00    +0.150 HD
ATOM     15  O   LYS A  10      12.279   1.472  20.757  0.00  0.00    -0.273 OA
BRANCH  13  16
ATOM     16  CA  PHE A  11       9.684   0.440  20.681  0.00  0.00    +0.153 C 
BRANCH  16  17
ATOM     17  C   PHE A  11       9.970   0.069  19.234  0.00  0.00    +0.241 C 
ATOM     18  N   THR A  12      10.625  -1.056  19.034  0.00  0.00    -0.295 N 
ATOM     19  H   THR A  12      11.053  -1.548  19.844  0.00  0.00    +0.150 HD
ATOM     20  O   PHE A  11       9.579   0.785  18.302  0.00  0.00    -0.273 OA
BRANCH  18  21
ATOM     21  CA  THR A  12      10.761  -1.626  17.696  0.00  0.00    +0.176 C 
BRANCH  21  22
ATOM     22  C   THR A  12      10.042  -2.965  17.602  0.00  0.00    +0.243 C 
ATOM     23  N   TYR A  13       9.675  -3.536  18.753  0.00  0.00    -0.297 N 
ATOM     24  H   TYR A  13       9.963  -3.088  19.646  0.00  0.00    +0.150 HD
ATOM     25  O   THR A  12       9.834  -3.485  16.501  0.00  0.00    -0.273 OA
BRANCH  23  26
ATOM     26  CA  TYR A  13       8.886  -4.762  18.807  0.00  0.00    +0.153 C 
BRANCH  26  27
ATOM     27  C   TYR A  13       8.219  -4.880  20.176  0.00  0.00    +0.241 C 
ATOM     28  O   TYR A  13       8.799  -4.490  21.200  0.00  0.00    -0.273 OA
ATOM     29  N   CYS A  14       7.007  -5.424  20.189  0.00  0.00    -0.297 N 
ATOM     30  H   CYS A  14       6.523  -5.605  19.286  0.00  0.00    +0.150 HD
BRANCH  29  31
ATOM     31  CA  CYS A  14       6.337  -5.775  21.439  0.00  0.00    +0.149 C 
BRANCH  31  32
ATOM     32  CB  CYS A  14       5.450  -4.641  21.957  0.00  0.00    +0.096 C 
ATOM     33  SG  CYS A  14       5.041  -4.846  23.728  0.00  0.00    -0.080 S 
ENDBRANCH  31  32
BRANCH  31  34
ATOM     34  C   CYS A  14       5.504  -7.041  21.270  0.00  0.00    +0.228 C 
ATOM     35  O   CYS A  14       4.791  -7.220  20.279  0.00  0.00    -0.286 OA
ENDBRANCH  31  34
ENDBRANCH  29  31
ENDBRANCH  26  27
BRANCH  26  36
ATOM     36  CB  TYR A  13       9.743  -6.033  18.537  0.00  0.00    +0.055 C 
BRANCH  36  37
ATOM     37  CG  TYR A  13       9.049  -7.313  18.948  0.00  0.00    -0.020 A 
ATOM     38  CD2 TYR A  13       9.177  -7.807  20.243  0.00  0.00    -0.001 A 
ATOM     39  CE2 TYR A  13       8.521  -8.938  20.634  0.00  0.00    +0.036 A 
ATOM     40  CZ  TYR A  13       7.721  -9.601  19.745  0.00  0.00    +0.134 A 
ATOM     41  CE1 TYR A  13       7.573  -9.146  18.461  0.00  0.00    +0.036 A 
ATOM     42  CD1 TYR A  13       8.240  -8.004  18.066  0.00  0.00    -0.001 A 
BRANCH  40  43
ATOM     43  OH  TYR A  13       7.062 -10.736  20.147  0.00  0.00    -0.506 OA
ATOM     44  HH  TYR A  13       7.277 -10.923  21.095  0.00  0.00    +0.292 HD
ENDBRANCH  40  43
ENDBRANCH  36  37
ENDBRANCH  26  36
ENDBRANCH  23  26
ENDBRANCH  21  22
BRANCH  21  45
ATOM     45  CB  THR A  12      12.238  -1.806  17.317  0.00  0.00    +0.137 C 
ATOM     46  CG2 THR A  12      12.916  -0.471  17.187  0.00  0.00    +0.034 C 
BRANCH  45  47
ATOM     47  OG1 THR A  12      12.895  -2.559  18.336  0.00  0.00    -0.382 OA
ATOM     48  HG1 THR A  12      12.462  -3.445  18.420  0.00  0.00    +0.210 HD
ENDBRANCH  45  47
ENDBRANCH  21  45
ENDBRANCH  18  21
ENDBRANCH  16  17
BRANCH  16  49
ATOM     49  CB  PHE A  11       8.175   0.232  20.886  0.00  0.00    +0.055 C 
BRANCH  49  50
ATOM     50  CG  PHE A  11       7.730   0.235  22.323  0.00  0.00    -0.020 A 
ATOM     51  CD2 PHE A  11       7.663  -0.953  23.047  0.00  0.00    -0.004 A 
ATOM     52  CE2 PHE A  11       7.245  -0.946  24.365  0.00  0.00    -0.000 A 
ATOM     53  CZ  PHE A  11       6.892   0.248  24.958  0.00  0.00    -0.000 A 
ATOM     54  CE1 PHE A  11       6.917   1.404  24.250  0.00  0.00    -0.000 A 
ATOM     55  CD1 PHE A  11       7.332   1.402  22.931  0.00  0.00    -0.004 A 
ENDBRANCH  49  50
ENDBRANCH  16  49
ENDBRANCH  13  16
ENDBRANCH  11  12
BRANCH  11  56
ATOM     56  CB  LYS A  10      11.673   4.314  19.547  0.00  0.00    +0.029 C 
BRANCH  56  57
ATOM     57  CG  LYS A  10      11.765   5.842  19.491  0.00  0.00    +0.000 C 
BRANCH  57  58
ATOM     58  CD  LYS A  10      11.988   6.340  18.046  0.00  0.00    -0.024 C 
BRANCH  58  59
ATOM     59  CE  LYS A  10      12.061   7.870  17.959  0.00  0.00    -0.086 C 
BRANCH  59  60
ATOM     60  NZ  LYS A  10      13.380   8.405  18.387  0.00  0.00    +0.380 N 
ATOM     61  HZ1 LYS A  10      13.560   8.132  19.374  0.00  0.00    -0.089 HD
ATOM     62  HZ2 LYS A  10      13.374   9.442  18.308  0.00  0.00    -0.089 HD
ATOM     63  HZ3 LYS A  10      14.126   8.014  17.777  0.00  0.00    -0.089 HD
ENDBRANCH  59  60
ENDBRANCH  58  59
ENDBRANCH  57  58
ENDBRANCH  56  57
ENDBRANCH  11  56
ENDBRANCH   9  11
ENDBRANCH   6   7
BRANCH   6  64
ATOM     64  CB  MET A   9      13.789   5.796  24.780  0.00  0.00    +0.041 C 
BRANCH  64  65
ATOM     65  CG  MET A   9      15.074   6.144  25.506  0.00  0.00    +0.060 C 
BRANCH  65  66
ATOM     66  SD  MET A   9      14.851   6.560  27.234  0.00  0.00    -0.139 S 
ATOM     67  CE  MET A   9      14.147   5.030  27.857  0.00  0.00    +0.069 C 
ENDBRANCH  65  66
ENDBRANCH  64  65
ENDBRANCH   6  64
ENDBRANCH   3   6
ENDBRANCH   1   2
BRANCH   1  70
ATOM     68  C   MET A   7      18.381   4.409  22.035  0.00  0.00    +0.241 C 
ATOM     69  O   MET A   7      18.910   4.977  22.987  0.00  0.00    -0.273 OA
ATOM     70  N   ASP A   8      17.370   4.933  21.344  0.00  0.00    -0.297 N 
ATOM     71  H   ASP A   8      16.998   4.421  20.518  0.00  0.00    +0.150 HD
BRANCH  68  72
ATOM     72  CA  MET A   7      18.878   3.032  21.594  0.00  0.00    +0.149 C 
BRANCH  72  75
ATOM     73  C   SER A   6      16.919   1.834  20.881  0.00  0.00    +0.243 C 
ATOM     74  O   SER A   6      16.567   1.701  22.053  0.00  0.00    -0.273 OA
ATOM     75  N   MET A   7      18.032   2.480  20.549  0.00  0.00    -0.297 N 
ATOM     76  H   MET A   7      18.296   2.590  19.549  0.00  0.00    +0.150 HD
BRANCH  73  77
ATOM     77  CA  SER A   6      16.068   1.291  19.736  0.00  0.00    +0.178 C 
BRANCH  77  80
ATOM     78  C   HIS A   5      15.015  -0.567  20.898  0.00  0.00    +0.241 C 
ATOM     79  O   HIS A   5      16.026  -1.255  20.880  0.00  0.00    -0.273 OA
ATOM     80  N   SER A   6      14.906   0.604  20.274  0.00  0.00    -0.295 N 
ATOM     81  H   SER A   6      13.967   1.038  20.169  0.00  0.00    +0.150 HD
BRANCH  78  82
ATOM     82  CA  HIS A   5      13.785  -1.028  21.622  0.00  0.00    +0.155 C 
BRANCH  82  84
ATOM     83  C   GLU A   4      12.583  -3.135  21.557  0.00  0.00    +0.241 C 
ATOM     84  N   HIS A   5      13.717  -2.472  21.739  0.00  0.00    -0.297 N 
ATOM     85  H   HIS A   5      14.581  -3.002  21.972  0.00  0.00    +0.150 HD
ATOM     86  O   GLU A   4      11.536  -2.595  21.240  0.00  0.00    -0.273 OA
BRANCH  83  87
ATOM     87  CA  GLU A   4      12.610  -4.614  21.826  0.00  0.00    +0.149 C 
BRANCH  87  90
ATOM     88  C   SER A   3      11.240  -5.699  23.503  0.00  0.00    +0.243 C 
ATOM     89  O   SER A   3      12.217  -6.170  24.088  0.00  0.00    -0.273 OA
ATOM     90  N   GLU A   4      11.331  -4.957  22.406  0.00  0.00    -0.297 N 
ATOM     91  H   GLU A   4      10.460  -4.614  21.952  0.00  0.00    +0.150 HD
BRANCH  88  92
ATOM     92  CA  SER A   3       9.830  -5.986  23.982  0.00  0.00    +0.178 C 
BRANCH  92  94
ATOM     93  C   LEU A   2       8.797  -7.950  24.936  0.00  0.00    +0.241 C 
ATOM     94  N   SER A   3       9.843  -7.130  24.888  0.00  0.00    -0.295 N 
ATOM     95  H   SER A   3      10.669  -7.304  25.495  0.00  0.00    +0.150 HD
ATOM     96  O   LEU A   2       7.761  -7.735  24.325  0.00  0.00    -0.273 OA
BRANCH  93  97
ATOM     97  CA  LEU A   2       8.952  -9.216  25.785  0.00  0.00    +0.149 C 
BRANCH  97 100
ATOM     98  C   PHE A   1       7.295  -9.255  27.572  0.00  0.00    +0.239 C 
ATOM     99  O   PHE A   1       7.988  -8.585  28.343  0.00  0.00    -0.274 OA
ATOM    100  N   LEU A   2       7.672  -9.608  26.343  0.00  0.00    -0.297 N 
ATOM    101  H   LEU A   2       7.027 -10.184  25.765  0.00  0.00    +0.150 HD
BRANCH  98 102
ATOM    102  CA  PHE A   1       5.945  -9.768  28.015  0.00  0.00    +0.149 C 
BRANCH 102 103
ATOM    103  N   PHE A   1       5.962  -9.938  29.471  0.00  0.00    -0.238 NA
ATOM    104  H   PHE A   1       6.426  -9.225  30.070  0.00  0.00    +0.142 HD
ENDBRANCH 102 103
BRANCH 102 105
ATOM    105  CB  PHE A   1       4.795  -8.841  27.560  0.00  0.00    +0.053 C 
BRANCH 105 106
ATOM    106  CG  PHE A   1       4.930  -7.416  28.004  0.00  0.00    -0.020 A 
ATOM    107  CD2 PHE A   1       4.452  -6.994  29.247  0.00  0.00    -0.004 A 
ATOM    108  CE2 PHE A   1       4.567  -5.667  29.639  0.00  0.00    -0.000 A 
ATOM    109  CZ  PHE A   1       5.154  -4.740  28.794  0.00  0.00    -0.000 A 
ATOM    110  CE1 PHE A   1       5.617  -5.151  27.560  0.00  0.00    -0.000 A 
ATOM    111  CD1 PHE A   1       5.497  -6.474  27.175  0.00  0.00    -0.004 A 
ENDBRANCH 105 106
ENDBRANCH 102 105
ENDBRANCH  98 102
ENDBRANCH  97 100
BRANCH  97 112
ATOM    112  CB  LEU A   2       9.495 -10.339  24.902  0.00  0.00    +0.029 C 
BRANCH 112 113
ATOM    113  CG  LEU A   2       9.628 -11.702  25.575  0.00  0.00    +0.002 C 
ATOM    114  CD2 LEU A   2      10.607 -11.619  26.715  0.00  0.00    +0.000 C 
ATOM    115  CD1 LEU A   2      10.073 -12.734  24.565  0.00  0.00    +0.000 C 
ENDBRANCH 112 113
ENDBRANCH  97 112
ENDBRANCH  93  97
ENDBRANCH  92  94
BRANCH  92 116
ATOM    116  CB  SER A   3       9.203  -4.759  24.625  0.00  0.00    +0.166 C 
BRANCH 116 117
ATOM    117  OG  SER A   3       9.919  -4.370  25.774  0.00  0.00    -0.380 OA
ATOM    118  H   SER A   3      10.852  -4.156  25.523  0.00  0.00    +0.211 HD
ENDBRANCH 116 117
ENDBRANCH  92 116
ENDBRANCH  88  92
ENDBRANCH  87  90
BRANCH  87 119
ATOM    119  CB  GLU A   4      12.803  -5.386  20.520  0.00  0.00    +0.041 C 
BRANCH 119 120
ATOM    120  CG  GLU A   4      14.074  -5.110  19.813  0.00  0.00    +0.116 C 
BRANCH 120 121
ATOM    121  CD  GLU A   4      13.998  -5.697  18.438  0.00  0.00    +0.365 C 
ATOM    122  OE2 GLU A   4      14.359  -6.876  18.305  0.00  0.00    -0.246 OA
ATOM    123  OE1 GLU A   4      13.495  -5.002  17.531  0.00  0.00    -0.246 OA
ENDBRANCH 120 121
ENDBRANCH 119 120
ENDBRANCH  87 119
ENDBRANCH  83  87
ENDBRANCH  82  84
BRANCH  82 124
ATOM    124  CB  HIS A   5      13.797  -0.437  23.042  0.00  0.00    +0.076 C 
BRANCH 124 125
ATOM    125  CG  HIS A   5      12.692  -0.980  23.879  0.00  0.00    +0.082 A 
ATOM    126  CD2 HIS A   5      12.539  -2.172  24.501  0.00  0.00    +0.115 A 
ATOM    127  NE2 HIS A   5      11.283  -2.176  25.061  0.00  0.00    -0.221 NA
ATOM    128  CE1 HIS A   5      10.687  -1.038  24.775  0.00  0.00    +0.199 A 
ATOM    129  ND1 HIS A   5      11.516  -0.298  24.062  0.00  0.00    -0.227 NA
ENDBRANCH 124 125
ENDBRANCH  82 124
ENDBRANCH  78  82
ENDBRANCH  77  80
BRANCH  77 130
ATOM    130  CB  SER A   6      15.616   2.456  18.876  0.00  0.00    +0.166 C 
BRANCH 130 131
ATOM    131  OG  SER A   6      14.996   3.432  19.690  0.00  0.00    -0.380 OA
ATOM    132  H   SER A   6      14.702   4.191  19.127  0.00  0.00    +0.211 HD
ENDBRANCH 130 131
ENDBRANCH  77 130
ENDBRANCH  73  77
ENDBRANCH  72  75
BRANCH  72 133
ATOM    133  CB  MET A   7      20.330   3.102  21.132  0.00  0.00    +0.041 C 
BRANCH 133 134
ATOM    134  CG  MET A   7      20.913   1.747  20.755  0.00  0.00    +0.060 C 
BRANCH 134 135
ATOM    135  SD  MET A   7      20.766   0.470  22.032  0.00  0.00    -0.139 S 
ATOM    136  CE  MET A   7      21.663   1.185  23.393  0.00  0.00    +0.069 C 
ENDBRANCH 134 135
ENDBRANCH 133 134
ENDBRANCH  72 133
ENDBRANCH  68  72
ENDBRANCH   1  70
BRANCH   1 137
ATOM    137  CB  ASP A   8      16.786   7.187  20.544  0.00  0.00    +0.143 C 
BRANCH 137 138
ATOM    138  CG  ASP A   8      15.960   6.706  19.386  0.00  0.00    +0.367 C 
ATOM    139  OD2 ASP A   8      15.752   5.491  19.286  0.00  0.00    -0.246 OA
ATOM    140  OD1 ASP A   8      15.523   7.536  18.570  0.00  0.00    -0.246 OA
ENDBRANCH 137 138
ENDBRANCH   1 137
TORSDOF 62
REMARK  Name = ../refined-set-2016/4xt2/4xt2_pocket.pdb
REMARK  254 active torsions:
REMARK  status: ('A' for Active; 'I' for Inactive)
REMARK    1  A    between atoms: _1  and  _3
REMARK    2  A    between atoms: _3  and  _4
REMARK    3  A    between atoms: _3  and  _6
REMARK    4  A    between atoms: _6  and  _7
REMARK    5  A    between atoms: _13  and  _15
REMARK    6  A    between atoms: _15  and  _16
REMARK    7  A    between atoms: _15  and  _18
REMARK    8  A    between atoms: _18  and  _19
REMARK    9  A    between atoms: _22  and  _24
REMARK   10  A    between atoms: _24  and  _25
REMARK   11  A    between atoms: _24  and  _27
REMARK   12  A    between atoms: _27  and  _28
REMARK   13  A    between atoms: _30  and  _32
REMARK   14  A    between atoms: _32  and  _33
REMARK   15  A    between atoms: _32  and  _35
REMARK   16  A    between atoms: _35  and  _36
REMARK   17  A    between atoms: _36  and  _37
REMARK   18  A    between atoms: _40  and  _42
REMARK   19  A    between atoms: _42  and  _43
REMARK   20  A    between atoms: _42  and  _45
REMARK   21  A    between atoms: _45  and  _46
REMARK   22  A    between atoms: _51  and  _53
REMARK   23  A    between atoms: _53  and  _54
REMARK   24  A    between atoms: _53  and  _56
REMARK   25  A    between atoms: _56  and  _57
REMARK   26  A    between atoms: _59  and  _61
REMARK   27  A    between atoms: _61  and  _62
REMARK   28  A    between atoms: _61  and  _64
REMARK   29  A    between atoms: _64  and  _65
REMARK   30  A    between atoms: _65  and  _66
REMARK   31  A    between atoms: _68  and  _70
REMARK   32  A    between atoms: _70  and  _71
REMARK   33  A    between atoms: _70  and  _73
REMARK   34  A    between atoms: _73  and  _74
REMARK   35  A    between atoms: _77  and  _79
REMARK   36  A    between atoms: _79  and  _80
REMARK   37  A    between atoms: _79  and  _82
REMARK   38  A    between atoms: _82  and  _83
REMARK   39  A    between atoms: _83  and  _84
REMARK   40  A    between atoms: _86  and  _88
REMARK   41  A    between atoms: _88  and  _89
REMARK   42  A    between atoms: _88  and  _91
REMARK   43  A    between atoms: _91  and  _92
REMARK   44  A    between atoms: _92  and  _93
REMARK   45  A    between atoms: _93  and  _94
REMARK   46  A    between atoms: _94  and  _95
REMARK   47  A    between atoms: _99  and  _101
REMARK   48  A    between atoms: _101  and  _102
REMARK   49  A    between atoms: _101  and  _104
REMARK   50  A    between atoms: _104  and  _105
REMARK   51  A    between atoms: _111  and  _113
REMARK   52  A    between atoms: _113  and  _114
REMARK   53  A    between atoms: _113  and  _116
REMARK   54  A    between atoms: _116  and  _117
REMARK   55  A    between atoms: _120  and  _122
REMARK   56  A    between atoms: _122  and  _123
REMARK   57  A    between atoms: _122  and  _125
REMARK   58  A    between atoms: _125  and  _126
REMARK   59  A    between atoms: _131  and  _132
REMARK   60  A    between atoms: _134  and  _136
REMARK   61  A    between atoms: _136  and  _137
REMARK   62  A    between atoms: _136  and  _139
REMARK   63  A    between atoms: _141  and  _143
REMARK   64  A    between atoms: _143  and  _144
REMARK   65  A    between atoms: _143  and  _146
REMARK   66  A    between atoms: _146  and  _147
REMARK   67  A    between atoms: _150  and  _152
REMARK   68  A    between atoms: _152  and  _153
REMARK   69  A    between atoms: _152  and  _155
REMARK   70  A    between atoms: _155  and  _156
REMARK   71  A    between atoms: _159  and  _161
REMARK   72  A    between atoms: _161  and  _162
REMARK   73  A    between atoms: _161  and  _164
REMARK   74  A    between atoms: _164  and  _165
REMARK   75  A    between atoms: _170  and  _171
REMARK   76  A    between atoms: _173  and  _175
REMARK   77  A    between atoms: _175  and  _176
REMARK   78  A    between atoms: _175  and  _178
REMARK   79  A    between atoms: _178  and  _179
REMARK   80  A    between atoms: _182  and  _184
REMARK   81  A    between atoms: _184  and  _185
REMARK   82  A    between atoms: _184  and  _187
REMARK   83  A    between atoms: _187  and  _188
REMARK   84  A    between atoms: _188  and  _189
REMARK   85  A    between atoms: _189  and  _190
REMARK   86  A    between atoms: _199  and  _201
REMARK   87  A    between atoms: _201  and  _202
REMARK   88  A    between atoms: _201  and  _204
REMARK   89  A    between atoms: _204  and  _205
REMARK   90  A    between atoms: _207  and  _209
REMARK   91  A    between atoms: _209  and  _210
REMARK   92  A    between atoms: _213  and  _215
REMARK   93  A    between atoms: _215  and  _216
REMARK   94  A    between atoms: _215  and  _218
REMARK   95  A    between atoms: _218  and  _219
REMARK   96  A    between atoms: _224  and  _225
REMARK   97  A    between atoms: _227  and  _229
REMARK   98  A    between atoms: _229  and  _230
REMARK   99  A    between atoms: _229  and  _232
REMARK  100  A    between atoms: _232  and  _233
REMARK  101  A    between atoms: _233  and  _234
REMARK  102  A    between atoms: _237  and  _239
REMARK  103  A    between atoms: _239  and  _240
REMARK  104  A    between atoms: _239  and  _242
REMARK  105  A    between atoms: _242  and  _243
REMARK  106  A    between atoms: _249  and  _251
REMARK  107  A    between atoms: _251  and  _252
REMARK  108  A    between atoms: _251  and  _254
REMARK  109  A    between atoms: _254  and  _255
REMARK  110  A    between atoms: _260  and  _261
REMARK  111  A    between atoms: _263  and  _265
REMARK  112  A    between atoms: _265  and  _266
REMARK  113  A    between atoms: _265  and  _268
REMARK  114  A    between atoms: _268  and  _269
REMARK  115  A    between atoms: _274  and  _276
REMARK  116  A    between atoms: _276  and  _277
REMARK  117  A    between atoms: _276  and  _279
REMARK  118  A    between atoms: _279  and  _280
REMARK  119  A    between atoms: _285  and  _287
REMARK  120  A    between atoms: _287  and  _288
REMARK  121  A    between atoms: _287  and  _290
REMARK  122  A    between atoms: _290  and  _291
REMARK  123  A    between atoms: _291  and  _292
REMARK  124  A    between atoms: _294  and  _296
REMARK  125  A    between atoms: _296  and  _297
REMARK  126  A    between atoms: _296  and  _299
REMARK  127  A    between atoms: _299  and  _300
REMARK  128  A    between atoms: _303  and  _305
REMARK  129  A    between atoms: _305  and  _306
REMARK  130  A    between atoms: _305  and  _308
REMARK  131  A    between atoms: _308  and  _309
REMARK  132  A    between atoms: _309  and  _310
REMARK  133  A    between atoms: _310  and  _311
REMARK  134  A    between atoms: _311  and  _312
REMARK  135  A    between atoms: _316  and  _318
REMARK  136  A    between atoms: _318  and  _319
REMARK  137  A    between atoms: _318  and  _321
REMARK  138  A    between atoms: _321  and  _322
REMARK  139  A    between atoms: _324  and  _326
REMARK  140  A    between atoms: _326  and  _327
REMARK  141  A    between atoms: _326  and  _329
REMARK  142  A    between atoms: _329  and  _330
REMARK  143  A    between atoms: _335  and  _337
REMARK  144  A    between atoms: _337  and  _338
REMARK  145  A    between atoms: _337  and  _340
REMARK  146  A    between atoms: _340  and  _341
REMARK  147  A    between atoms: _341  and  _342
REMARK  148  A    between atoms: _347  and  _349
REMARK  149  A    between atoms: _349  and  _350
REMARK  150  A    between atoms: _349  and  _352
REMARK  151  A    between atoms: _352  and  _353
REMARK  152  A    between atoms: _358  and  _360
REMARK  153  A    between atoms: _360  and  _361
REMARK  154  A    between atoms: _360  and  _363
REMARK  155  A    between atoms: _363  and  _364
REMARK  156  A    between atoms: _367  and  _369
REMARK  157  A    between atoms: _369  and  _370
REMARK  158  A    between atoms: _369  and  _372
REMARK  159  A    between atoms: _374  and  _376
REMARK  160  A    between atoms: _376  and  _377
REMARK  161  A    between atoms: _379  and  _381
REMARK  162  A    between atoms: _381  and  _382
REMARK  163  A    between atoms: _381  and  _384
REMARK  164  A    between atoms: _384  and  _385
REMARK  165  A    between atoms: _385  and  _386
REMARK  166  A    between atoms: _391  and  _393
REMARK  167  A    between atoms: _393  and  _394
REMARK  168  A    between atoms: _393  and  _396
REMARK  169  A    between atoms: _399  and  _401
REMARK  170  A    between atoms: _401  and  _402
REMARK  171  A    between atoms: _401  and  _404
REMARK  172  A    between atoms: _407  and  _409
REMARK  173  A    between atoms: _409  and  _410
REMARK  174  A    between atoms: _409  and  _412
REMARK  175  A    between atoms: _412  and  _413
REMARK  176  A    between atoms: _415  and  _417
REMARK  177  A    between atoms: _417  and  _418
REMARK  178  A    between atoms: _420  and  _422
REMARK  179  A    between atoms: _422  and  _423
REMARK  180  A    between atoms: _422  and  _425
REMARK  181  A    between atoms: _425  and  _426
REMARK  182  A    between atoms: _431  and  _432
REMARK  183  A    between atoms: _434  and  _436
REMARK  184  A    between atoms: _436  and  _437
REMARK  185  A    between atoms: _436  and  _439
REMARK  186  A    between atoms: _439  and  _440
REMARK  187  A    between atoms: _440  and  _441
REMARK  188  A    between atoms: _441  and  _442
REMARK  189  A    between atoms: _451  and  _453
REMARK  190  A    between atoms: _453  and  _454
REMARK  191  A    between atoms: _453  and  _456
REMARK  192  A    between atoms: _456  and  _457
REMARK  193  A    between atoms: _457  and  _458
REMARK  194  A    between atoms: _460  and  _462
REMARK  195  A    between atoms: _462  and  _463
REMARK  196  A    between atoms: _462  and  _465
REMARK  197  A    between atoms: _465  and  _466
REMARK  198  A    between atoms: _469  and  _471
REMARK  199  A    between atoms: _471  and  _472
REMARK  200  A    between atoms: _471  and  _474
REMARK  201  A    between atoms: _477  and  _479
REMARK  202  A    between atoms: _479  and  _480
REMARK  203  A    between atoms: _479  and  _482
REMARK  204  A    between atoms: _482  and  _483
REMARK  205  A    between atoms: _486  and  _488
REMARK  206  A    between atoms: _488  and  _489
REMARK  207  A    between atoms: _488  and  _491
REMARK  208  A    between atoms: _491  and  _492
REMARK  209  A    between atoms: _492  and  _493
REMARK  210  A    between atoms: _496  and  _498
REMARK  211  A    between atoms: _498  and  _499
REMARK  212  A    between atoms: _498  and  _501
REMARK  213  A    between atoms: _501  and  _502
REMARK  214  A    between atoms: _505  and  _507
REMARK  215  A    between atoms: _507  and  _508
REMARK  216  A    between atoms: _507  and  _510
REMARK  217  A    between atoms: _510  and  _511
REMARK  218  A    between atoms: _511  and  _512
REMARK  219  A    between atoms: _517  and  _519
REMARK  220  A    between atoms: _519  and  _520
REMARK  221  A    between atoms: _522  and  _524
REMARK  222  A    between atoms: _524  and  _525
REMARK  223  A    between atoms: _524  and  _527
REMARK  224  A    between atoms: _527  and  _528
REMARK  225  A    between atoms: _531  and  _533
REMARK  226  A    between atoms: _533  and  _534
REMARK  227  A    between atoms: _533  and  _536
REMARK  228  A    between atoms: _539  and  _541
REMARK  229  A    between atoms: _541  and  _542
REMARK  230  A    between atoms: _541  and  _544
REMARK  231  A    between atoms: _546  and  _548
REMARK  232  A    between atoms: _548  and  _549
REMARK  233  A    between atoms: _548  and  _551
REMARK  234  A    between atoms: _551  and  _552
REMARK  235  A    between atoms: _555  and  _557
REMARK  236  A    between atoms: _557  and  _558
REMARK  237  A    between atoms: _557  and  _560
REMARK  238  A    between atoms: _560  and  _561
REMARK  239  A    between atoms: _561  and  _562
REMARK  240  A    between atoms: _564  and  _566
REMARK  241  A    between atoms: _566  and  _567
REMARK  242  A    between atoms: _566  and  _569
REMARK  243  A    between atoms: _571  and  _573
REMARK  244  A    between atoms: _573  and  _574
REMARK  245  A    between atoms: _573  and  _576
REMARK  246  A    between atoms: _579  and  _581
REMARK  247  A    between atoms: _581  and  _582
REMARK  248  A    between atoms: _581  and  _584
REMARK  249  A    between atoms: _584  and  _585
REMARK  250  A    between atoms: _590  and  _592
REMARK  251  A    between atoms: _592  and  _593
REMARK  252  A    between atoms: _592  and  _595
REMARK  253  A    between atoms: _595  and  _596
REMARK  254  A    between atoms: _601  and  _602
REMARK                            x       y       z     vdW  Elec       q    Type
REMARK                         _______ _______ _______ _____ _____    ______ ____
ROOT
ATOM      1  CA  ILE A   1       0.848  -6.505  26.374  0.00  0.00    +0.133 C 
ENDROOT
BRANCH   1   2
ATOM      2  N   ILE A   1       1.086  -7.824  25.782  0.00  0.00    -0.239 NA
ATOM      3  H   ILE A   1       1.750  -7.925  24.988  0.00  0.00    +0.142 HD
ENDBRANCH   1   2
BRANCH   1   4
ATOM      4  C   ILE A   1      -0.619  -6.083  26.241  0.00  0.00    +0.224 C 
ATOM      5  O   ILE A   1      -1.122  -5.347  27.088  0.00  0.00    -0.287 OA
ENDBRANCH   1   4
BRANCH   1   6
ATOM      6  CB  ILE A   1       1.774  -5.417  25.780  0.00  0.00    +0.023 C 
ATOM      7  CG2 ILE A   1       1.354  -5.045  24.338  0.00  0.00    +0.002 C 
BRANCH   6   8
ATOM      8  CG1 ILE A   1       1.785  -4.193  26.693  0.00  0.00    +0.002 C 
ATOM      9  CD1 ILE A   1       2.775  -3.118  26.310  0.00  0.00    +0.000 C 
ENDBRANCH   6   8
ENDBRANCH   1   6
TORSDOF 4
REMARK  Name = ../refined-set-2016/4xt2/4xt2_pocket.pdb
REMARK  254 active torsions:
REMARK  status: ('A' for Active; 'I' for Inactive)
REMARK    1  A    between atoms: _1  and  _3
REMARK    2  A    between atoms: _3  and  _4
REMARK    3  A    between atoms: _3  and  _6
REMARK    4  A    between atoms: _6  and  _7
REMARK    5  A    between atoms: _13  and  _15
REMARK    6  A    between atoms: _15  and  _16
REMARK    7  A    between atoms: _15  and  _18
REMARK    8  A    between atoms: _18  and  _19
REMARK    9  A    between atoms: _22  and  _24
REMARK   10  A    between atoms: _24  and  _25
REMARK   11  A    between atoms: _24  and  _27
REMARK   12  A    between atoms: _27  and  _28
REMARK   13  A    between atoms: _30  and  _32
REMARK   14  A    between atoms: _32  and  _33
REMARK   15  A    between atoms: _32  and  _35
REMARK   16  A    between atoms: _35  and  _36
REMARK   17  A    between atoms: _36  and  _37
REMARK   18  A    between atoms: _40  and  _42
REMARK   19  A    between atoms: _42  and  _43
REMARK   20  A    between atoms: _42  and  _45
REMARK   21  A    between atoms: _45  and  _46
REMARK   22  A    between atoms: _51  and  _53
REMARK   23  A    between atoms: _53  and  _54
REMARK   24  A    between atoms: _53  and  _56
REMARK   25  A    between atoms: _56  and  _57
REMARK   26  A    between atoms: _59  and  _61
REMARK   27  A    between atoms: _61  and  _62
REMARK   28  A    between atoms: _61  and  _64
REMARK   29  A    between atoms: _64  and  _65
REMARK   30  A    between atoms: _65  and  _66
REMARK   31  A    between atoms: _68  and  _70
REMARK   32  A    between atoms: _70  and  _71
REMARK   33  A    between atoms: _70  and  _73
REMARK   34  A    between atoms: _73  and  _74
REMARK   35  A    between atoms: _77  and  _79
REMARK   36  A    between atoms: _79  and  _80
REMARK   37  A    between atoms: _79  and  _82
REMARK   38  A    between atoms: _82  and  _83
REMARK   39  A    between atoms: _83  and  _84
REMARK   40  A    between atoms: _86  and  _88
REMARK   41  A    between atoms: _88  and  _89
REMARK   42  A    between atoms: _88  and  _91
REMARK   43  A    between atoms: _91  and  _92
REMARK   44  A    between atoms: _92  and  _93
REMARK   45  A    between atoms: _93  and  _94
REMARK   46  A    between atoms: _94  and  _95
REMARK   47  A    between atoms: _99  and  _101
REMARK   48  A    between atoms: _101  and  _102
REMARK   49  A    between atoms: _101  and  _104
REMARK   50  A    between atoms: _104  and  _105
REMARK   51  A    between atoms: _111  and  _113
REMARK   52  A    between atoms: _113  and  _114
REMARK   53  A    between atoms: _113  and  _116
REMARK   54  A    between atoms: _116  and  _117
REMARK   55  A    between atoms: _120  and  _122
REMARK   56  A    between atoms: _122  and  _123
REMARK   57  A    between atoms: _122  and  _125
REMARK   58  A    between atoms: _125  and  _126
REMARK   59  A    between atoms: _131  and  _132
REMARK   60  A    between atoms: _134  and  _136
REMARK   61  A    between atoms: _136  and  _137
REMARK   62  A    between atoms: _136  and  _139
REMARK   63  A    between atoms: _141  and  _143
REMARK   64  A    between atoms: _143  and  _144
REMARK   65  A    between atoms: _143  and  _146
REMARK   66  A    between atoms: _146  and  _147
REMARK   67  A    between atoms: _150  and  _152
REMARK   68  A    between atoms: _152  and  _153
REMARK   69  A    between atoms: _152  and  _155
REMARK   70  A    between atoms: _155  and  _156
REMARK   71  A    between atoms: _159  and  _161
REMARK   72  A    between atoms: _161  and  _162
REMARK   73  A    between atoms: _161  and  _164
REMARK   74  A    between atoms: _164  and  _165
REMARK   75  A    between atoms: _170  and  _171
REMARK   76  A    between atoms: _173  and  _175
REMARK   77  A    between atoms: _175  and  _176
REMARK   78  A    between atoms: _175  and  _178
REMARK   79  A    between atoms: _178  and  _179
REMARK   80  A    between atoms: _182  and  _184
REMARK   81  A    between atoms: _184  and  _185
REMARK   82  A    between atoms: _184  and  _187
REMARK   83  A    between atoms: _187  and  _188
REMARK   84  A    between atoms: _188  and  _189
REMARK   85  A    between atoms: _189  and  _190
REMARK   86  A    between atoms: _199  and  _201
REMARK   87  A    between atoms: _201  and  _202
REMARK   88  A    between atoms: _201  and  _204
REMARK   89  A    between atoms: _204  and  _205
REMARK   90  A    between atoms: _207  and  _209
REMARK   91  A    between atoms: _209  and  _210
REMARK   92  A    between atoms: _213  and  _215
REMARK   93  A    between atoms: _215  and  _216
REMARK   94  A    between atoms: _215  and  _218
REMARK   95  A    between atoms: _218  and  _219
REMARK   96  A    between atoms: _224  and  _225
REMARK   97  A    between atoms: _227  and  _229
REMARK   98  A    between atoms: _229  and  _230
REMARK   99  A    between atoms: _229  and  _232
REMARK  100  A    between atoms: _232  and  _233
REMARK  101  A    between atoms: _233  and  _234
REMARK  102  A    between atoms: _237  and  _239
REMARK  103  A    between atoms: _239  and  _240
REMARK  104  A    between atoms: _239  and  _242
REMARK  105  A    between atoms: _242  and  _243
REMARK  106  A    between atoms: _249  and  _251
REMARK  107  A    between atoms: _251  and  _252
REMARK  108  A    between atoms: _251  and  _254
REMARK  109  A    between atoms: _254  and  _255
REMARK  110  A    between atoms: _260  and  _261
REMARK  111  A    between atoms: _263  and  _265
REMARK  112  A    between atoms: _265  and  _266
REMARK  113  A    between atoms: _265  and  _268
REMARK  114  A    between atoms: _268  and  _269
REMARK  115  A    between atoms: _274  and  _276
REMARK  116  A    between atoms: _276  and  _277
REMARK  117  A    between atoms: _276  and  _279
REMARK  118  A    between atoms: _279  and  _280
REMARK  119  A    between atoms: _285  and  _287
REMARK  120  A    between atoms: _287  and  _288
REMARK  121  A    between atoms: _287  and  _290
REMARK  122  A    between atoms: _290  and  _291
REMARK  123  A    between atoms: _291  and  _292
REMARK  124  A    between atoms: _294  and  _296
REMARK  125  A    between atoms: _296  and  _297
REMARK  126  A    between atoms: _296  and  _299
REMARK  127  A    between atoms: _299  and  _300
REMARK  128  A    between atoms: _303  and  _305
REMARK  129  A    between atoms: _305  and  _306
REMARK  130  A    between atoms: _305  and  _308
REMARK  131  A    between atoms: _308  and  _309
REMARK  132  A    between atoms: _309  and  _310
REMARK  133  A    between atoms: _310  and  _311
REMARK  134  A    between atoms: _311  and  _312
REMARK  135  A    between atoms: _316  and  _318
REMARK  136  A    between atoms: _318  and  _319
REMARK  137  A    between atoms: _318  and  _321
REMARK  138  A    between atoms: _321  and  _322
REMARK  139  A    between atoms: _324  and  _326
REMARK  140  A    between atoms: _326  and  _327
REMARK  141  A    between atoms: _326  and  _329
REMARK  142  A    between atoms: _329  and  _330
REMARK  143  A    between atoms: _335  and  _337
REMARK  144  A    between atoms: _337  and  _338
REMARK  145  A    between atoms: _337  and  _340
REMARK  146  A    between atoms: _340  and  _341
REMARK  147  A    between atoms: _341  and  _342
REMARK  148  A    between atoms: _347  and  _349
REMARK  149  A    between atoms: _349  and  _350
REMARK  150  A    between atoms: _349  and  _352
REMARK  151  A    between atoms: _352  and  _353
REMARK  152  A    between atoms: _358  and  _360
REMARK  153  A    between atoms: _360  and  _361
REMARK  154  A    between atoms: _360  and  _363
REMARK  155  A    between atoms: _363  and  _364
REMARK  156  A    between atoms: _367  and  _369
REMARK  157  A    between atoms: _369  and  _370
REMARK  158  A    between atoms: _369  and  _372
REMARK  159  A    between atoms: _374  and  _376
REMARK  160  A    between atoms: _376  and  _377
REMARK  161  A    between atoms: _379  and  _381
REMARK  162  A    between atoms: _381  and  _382
REMARK  163  A    between atoms: _381  and  _384
REMARK  164  A    between atoms: _384  and  _385
REMARK  165  A    between atoms: _385  and  _386
REMARK  166  A    between atoms: _391  and  _393
REMARK  167  A    between atoms: _393  and  _394
REMARK  168  A    between atoms: _393  and  _396
REMARK  169  A    between atoms: _399  and  _401
REMARK  170  A    between atoms: _401  and  _402
REMARK  171  A    between atoms: _401  and  _404
REMARK  172  A    between atoms: _407  and  _409
REMARK  173  A    between atoms: _409  and  _410
REMARK  174  A    between atoms: _409  and  _412
REMARK  175  A    between atoms: _412  and  _413
REMARK  176  A    between atoms: _415  and  _417
REMARK  177  A    between atoms: _417  and  _418
REMARK  178  A    between atoms: _420  and  _422
REMARK  179  A    between atoms: _422  and  _423
REMARK  180  A    between atoms: _422  and  _425
REMARK  181  A    between atoms: _425  and  _426
REMARK  182  A    between atoms: _431  and  _432
REMARK  183  A    between atoms: _434  and  _436
REMARK  184  A    between atoms: _436  and  _437
REMARK  185  A    between atoms: _436  and  _439
REMARK  186  A    between atoms: _439  and  _440
REMARK  187  A    between atoms: _440  and  _441
REMARK  188  A    between atoms: _441  and  _442
REMARK  189  A    between atoms: _451  and  _453
REMARK  190  A    between atoms: _453  and  _454
REMARK  191  A    between atoms: _453  and  _456
REMARK  192  A    between atoms: _456  and  _457
REMARK  193  A    between atoms: _457  and  _458
REMARK  194  A    between atoms: _460  and  _462
REMARK  195  A    between atoms: _462  and  _463
REMARK  196  A    between atoms: _462  and  _465
REMARK  197  A    between atoms: _465  and  _466
REMARK  198  A    between atoms: _469  and  _471
REMARK  199  A    between atoms: _471  and  _472
REMARK  200  A    between atoms: _471  and  _474
REMARK  201  A    between atoms: _477  and  _479
REMARK  202  A    between atoms: _479  and  _480
REMARK  203  A    between atoms: _479  and  _482
REMARK  204  A    between atoms: _482  and  _483
REMARK  205  A    between atoms: _486  and  _488
REMARK  206  A    between atoms: _488  and  _489
REMARK  207  A    between atoms: _488  and  _491
REMARK  208  A    between atoms: _491  and  _492
REMARK  209  A    between atoms: _492  and  _493
REMARK  210  A    between atoms: _496  and  _498
REMARK  211  A    between atoms: _498  and  _499
REMARK  212  A    between atoms: _498  and  _501
REMARK  213  A    between atoms: _501  and  _502
REMARK  214  A    between atoms: _505  and  _507
REMARK  215  A    between atoms: _507  and  _508
REMARK  216  A    between atoms: _507  and  _510
REMARK  217  A    between atoms: _510  and  _511
REMARK  218  A    between atoms: _511  and  _512
REMARK  219  A    between atoms: _517  and  _519
REMARK  220  A    between atoms: _519  and  _520
REMARK  221  A    between atoms: _522  and  _524
REMARK  222  A    between atoms: _524  and  _525
REMARK  223  A    between atoms: _524  and  _527
REMARK  224  A    between atoms: _527  and  _528
REMARK  225  A    between atoms: _531  and  _533
REMARK  226  A    between atoms: _533  and  _534
REMARK  227  A    between atoms: _533  and  _536
REMARK  228  A    between atoms: _539  and  _541
REMARK  229  A    between atoms: _541  and  _542
REMARK  230  A    between atoms: _541  and  _544
REMARK  231  A    between atoms: _546  and  _548
REMARK  232  A    between atoms: _548  and  _549
REMARK  233  A    between atoms: _548  and  _551
REMARK  234  A    between atoms: _551  and  _552
REMARK  235  A    between atoms: _555  and  _557
REMARK  236  A    between atoms: _557  and  _558
REMARK  237  A    between atoms: _557  and  _560
REMARK  238  A    between atoms: _560  and  _561
REMARK  239  A    between atoms: _561  and  _562
REMARK  240  A    between atoms: _564  and  _566
REMARK  241  A    between atoms: _566  and  _567
REMARK  242  A    between atoms: _566  and  _569
REMARK  243  A    between atoms: _571  and  _573
REMARK  244  A    between atoms: _573  and  _574
REMARK  245  A    between atoms: _573  and  _576
REMARK  246  A    between atoms: _579  and  _581
REMARK  247  A    between atoms: _581  and  _582
REMARK  248  A    between atoms: _581  and  _584
REMARK  249  A    between atoms: _584  and  _585
REMARK  250  A    between atoms: _590  and  _592
REMARK  251  A    between atoms: _592  and  _593
REMARK  252  A    between atoms: _592  and  _595
REMARK  253  A    between atoms: _595  and  _596
REMARK  254  A    between atoms: _601  and  _602
REMARK                            x       y       z     vdW  Elec       q    Type
REMARK                         _______ _______ _______ _____ _____    ______ ____
ROOT
ATOM      1  CA  ILE A   1      -2.096  -2.896  29.469  0.00  0.00    +0.133 C 
ENDROOT
BRANCH   1   2
ATOM      2  N   ILE A   1      -2.151  -4.360  29.411  0.00  0.00    -0.239 NA
ATOM      3  H   ILE A   1      -1.891  -4.848  28.530  0.00  0.00    +0.142 HD
ENDBRANCH   1   2
BRANCH   1   4
ATOM      4  CB  ILE A   1      -0.621  -2.427  29.359  0.00  0.00    +0.023 C 
ATOM      5  CG2 ILE A   1      -0.474  -0.971  29.768  0.00  0.00    +0.002 C 
BRANCH   4   6
ATOM      6  CG1 ILE A   1       0.268  -3.307  30.252  0.00  0.00    +0.002 C 
ATOM      7  CD1 ILE A   1       1.721  -2.932  30.261  0.00  0.00    +0.000 C 
ENDBRANCH   4   6
ENDBRANCH   1   4
BRANCH   1   8
ATOM      8  C   ILE A   1      -3.008  -2.225  28.421  0.00  0.00    +0.224 C 
ATOM      9  O   ILE A   1      -3.357  -1.054  28.572  0.00  0.00    -0.287 OA
ENDBRANCH   1   8
TORSDOF 4
REMARK  Name = ../refined-set-2016/4xt2/4xt2_pocket.pdb
REMARK  254 active torsions:
REMARK  status: ('A' for Active; 'I' for Inactive)
REMARK    1  A    between atoms: _1  and  _3
REMARK    2  A    between atoms: _3  and  _4
REMARK    3  A    between atoms: _3  and  _6
REMARK    4  A    between atoms: _6  and  _7
REMARK    5  A    between atoms: _13  and  _15
REMARK    6  A    between atoms: _15  and  _16
REMARK    7  A    between atoms: _15  and  _18
REMARK    8  A    between atoms: _18  and  _19
REMARK    9  A    between atoms: _22  and  _24
REMARK   10  A    between atoms: _24  and  _25
REMARK   11  A    between atoms: _24  and  _27
REMARK   12  A    between atoms: _27  and  _28
REMARK   13  A    between atoms: _30  and  _32
REMARK   14  A    between atoms: _32  and  _33
REMARK   15  A    between atoms: _32  and  _35
REMARK   16  A    between atoms: _35  and  _36
REMARK   17  A    between atoms: _36  and  _37
REMARK   18  A    between atoms: _40  and  _42
REMARK   19  A    between atoms: _42  and  _43
REMARK   20  A    between atoms: _42  and  _45
REMARK   21  A    between atoms: _45  and  _46
REMARK   22  A    between atoms: _51  and  _53
REMARK   23  A    between atoms: _53  and  _54
REMARK   24  A    between atoms: _53  and  _56
REMARK   25  A    between atoms: _56  and  _57
REMARK   26  A    between atoms: _59  and  _61
REMARK   27  A    between atoms: _61  and  _62
REMARK   28  A    between atoms: _61  and  _64
REMARK   29  A    between atoms: _64  and  _65
REMARK   30  A    between atoms: _65  and  _66
REMARK   31  A    between atoms: _68  and  _70
REMARK   32  A    between atoms: _70  and  _71
REMARK   33  A    between atoms: _70  and  _73
REMARK   34  A    between atoms: _73  and  _74
REMARK   35  A    between atoms: _77  and  _79
REMARK   36  A    between atoms: _79  and  _80
REMARK   37  A    between atoms: _79  and  _82
REMARK   38  A    between atoms: _82  and  _83
REMARK   39  A    between atoms: _83  and  _84
REMARK   40  A    between atoms: _86  and  _88
REMARK   41  A    between atoms: _88  and  _89
REMARK   42  A    between atoms: _88  and  _91
REMARK   43  A    between atoms: _91  and  _92
REMARK   44  A    between atoms: _92  and  _93
REMARK   45  A    between atoms: _93  and  _94
REMARK   46  A    between atoms: _94  and  _95
REMARK   47  A    between atoms: _99  and  _101
REMARK   48  A    between atoms: _101  and  _102
REMARK   49  A    between atoms: _101  and  _104
REMARK   50  A    between atoms: _104  and  _105
REMARK   51  A    between atoms: _111  and  _113
REMARK   52  A    between atoms: _113  and  _114
REMARK   53  A    between atoms: _113  and  _116
REMARK   54  A    between atoms: _116  and  _117
REMARK   55  A    between atoms: _120  and  _122
REMARK   56  A    between atoms: _122  and  _123
REMARK   57  A    between atoms: _122  and  _125
REMARK   58  A    between atoms: _125  and  _126
REMARK   59  A    between atoms: _131  and  _132
REMARK   60  A    between atoms: _134  and  _136
REMARK   61  A    between atoms: _136  and  _137
REMARK   62  A    between atoms: _136  and  _139
REMARK   63  A    between atoms: _141  and  _143
REMARK   64  A    between atoms: _143  and  _144
REMARK   65  A    between atoms: _143  and  _146
REMARK   66  A    between atoms: _146  and  _147
REMARK   67  A    between atoms: _150  and  _152
REMARK   68  A    between atoms: _152  and  _153
REMARK   69  A    between atoms: _152  and  _155
REMARK   70  A    between atoms: _155  and  _156
REMARK   71  A    between atoms: _159  and  _161
REMARK   72  A    between atoms: _161  and  _162
REMARK   73  A    between atoms: _161  and  _164
REMARK   74  A    between atoms: _164  and  _165
REMARK   75  A    between atoms: _170  and  _171
REMARK   76  A    between atoms: _173  and  _175
REMARK   77  A    between atoms: _175  and  _176
REMARK   78  A    between atoms: _175  and  _178
REMARK   79  A    between atoms: _178  and  _179
REMARK   80  A    between atoms: _182  and  _184
REMARK   81  A    between atoms: _184  and  _185
REMARK   82  A    between atoms: _184  and  _187
REMARK   83  A    between atoms: _187  and  _188
REMARK   84  A    between atoms: _188  and  _189
REMARK   85  A    between atoms: _189  and  _190
REMARK   86  A    between atoms: _199  and  _201
REMARK   87  A    between atoms: _201  and  _202
REMARK   88  A    between atoms: _201  and  _204
REMARK   89  A    between atoms: _204  and  _205
REMARK   90  A    between atoms: _207  and  _209
REMARK   91  A    between atoms: _209  and  _210
REMARK   92  A    between atoms: _213  and  _215
REMARK   93  A    between atoms: _215  and  _216
REMARK   94  A    between atoms: _215  and  _218
REMARK   95  A    between atoms: _218  and  _219
REMARK   96  A    between atoms: _224  and  _225
REMARK   97  A    between atoms: _227  and  _229
REMARK   98  A    between atoms: _229  and  _230
REMARK   99  A    between atoms: _229  and  _232
REMARK  100  A    between atoms: _232  and  _233
REMARK  101  A    between atoms: _233  and  _234
REMARK  102  A    between atoms: _237  and  _239
REMARK  103  A    between atoms: _239  and  _240
REMARK  104  A    between atoms: _239  and  _242
REMARK  105  A    between atoms: _242  and  _243
REMARK  106  A    between atoms: _249  and  _251
REMARK  107  A    between atoms: _251  and  _252
REMARK  108  A    between atoms: _251  and  _254
REMARK  109  A    between atoms: _254  and  _255
REMARK  110  A    between atoms: _260  and  _261
REMARK  111  A    between atoms: _263  and  _265
REMARK  112  A    between atoms: _265  and  _266
REMARK  113  A    between atoms: _265  and  _268
REMARK  114  A    between atoms: _268  and  _269
REMARK  115  A    between atoms: _274  and  _276
REMARK  116  A    between atoms: _276  and  _277
REMARK  117  A    between atoms: _276  and  _279
REMARK  118  A    between atoms: _279  and  _280
REMARK  119  A    between atoms: _285  and  _287
REMARK  120  A    between atoms: _287  and  _288
REMARK  121  A    between atoms: _287  and  _290
REMARK  122  A    between atoms: _290  and  _291
REMARK  123  A    between atoms: _291  and  _292
REMARK  124  A    between atoms: _294  and  _296
REMARK  125  A    between atoms: _296  and  _297
REMARK  126  A    between atoms: _296  and  _299
REMARK  127  A    between atoms: _299  and  _300
REMARK  128  A    between atoms: _303  and  _305
REMARK  129  A    between atoms: _305  and  _306
REMARK  130  A    between atoms: _305  and  _308
REMARK  131  A    between atoms: _308  and  _309
REMARK  132  A    between atoms: _309  and  _310
REMARK  133  A    between atoms: _310  and  _311
REMARK  134  A    between atoms: _311  and  _312
REMARK  135  A    between atoms: _316  and  _318
REMARK  136  A    between atoms: _318  and  _319
REMARK  137  A    between atoms: _318  and  _321
REMARK  138  A    between atoms: _321  and  _322
REMARK  139  A    between atoms: _324  and  _326
REMARK  140  A    between atoms: _326  and  _327
REMARK  141  A    between atoms: _326  and  _329
REMARK  142  A    between atoms: _329  and  _330
REMARK  143  A    between atoms: _335  and  _337
REMARK  144  A    between atoms: _337  and  _338
REMARK  145  A    between atoms: _337  and  _340
REMARK  146  A    between atoms: _340  and  _341
REMARK  147  A    between atoms: _341  and  _342
REMARK  148  A    between atoms: _347  and  _349
REMARK  149  A    between atoms: _349  and  _350
REMARK  150  A    between atoms: _349  and  _352
REMARK  151  A    between atoms: _352  and  _353
REMARK  152  A    between atoms: _358  and  _360
REMARK  153  A    between atoms: _360  and  _361
REMARK  154  A    between atoms: _360  and  _363
REMARK  155  A    between atoms: _363  and  _364
REMARK  156  A    between atoms: _367  and  _369
REMARK  157  A    between atoms: _369  and  _370
REMARK  158  A    between atoms: _369  and  _372
REMARK  159  A    between atoms: _374  and  _376
REMARK  160  A    between atoms: _376  and  _377
REMARK  161  A    between atoms: _379  and  _381
REMARK  162  A    between atoms: _381  and  _382
REMARK  163  A    between atoms: _381  and  _384
REMARK  164  A    between atoms: _384  and  _385
REMARK  165  A    between atoms: _385  and  _386
REMARK  166  A    between atoms: _391  and  _393
REMARK  167  A    between atoms: _393  and  _394
REMARK  168  A    between atoms: _393  and  _396
REMARK  169  A    between atoms: _399  and  _401
REMARK  170  A    between atoms: _401  and  _402
REMARK  171  A    between atoms: _401  and  _404
REMARK  172  A    between atoms: _407  and  _409
REMARK  173  A    between atoms: _409  and  _410
REMARK  174  A    between atoms: _409  and  _412
REMARK  175  A    between atoms: _412  and  _413
REMARK  176  A    between atoms: _415  and  _417
REMARK  177  A    between atoms: _417  and  _418
REMARK  178  A    between atoms: _420  and  _422
REMARK  179  A    between atoms: _422  and  _423
REMARK  180  A    between atoms: _422  and  _425
REMARK  181  A    between atoms: _425  and  _426
REMARK  182  A    between atoms: _431  and  _432
REMARK  183  A    between atoms: _434  and  _436
REMARK  184  A    between atoms: _436  and  _437
REMARK  185  A    between atoms: _436  and  _439
REMARK  186  A    between atoms: _439  and  _440
REMARK  187  A    between atoms: _440  and  _441
REMARK  188  A    between atoms: _441  and  _442
REMARK  189  A    between atoms: _451  and  _453
REMARK  190  A    between atoms: _453  and  _454
REMARK  191  A    between atoms: _453  and  _456
REMARK  192  A    between atoms: _456  and  _457
REMARK  193  A    between atoms: _457  and  _458
REMARK  194  A    between atoms: _460  and  _462
REMARK  195  A    between atoms: _462  and  _463
REMARK  196  A    between atoms: _462  and  _465
REMARK  197  A    between atoms: _465  and  _466
REMARK  198  A    between atoms: _469  and  _471
REMARK  199  A    between atoms: _471  and  _472
REMARK  200  A    between atoms: _471  and  _474
REMARK  201  A    between atoms: _477  and  _479
REMARK  202  A    between atoms: _479  and  _480
REMARK  203  A    between atoms: _479  and  _482
REMARK  204  A    between atoms: _482  and  _483
REMARK  205  A    between atoms: _486  and  _488
REMARK  206  A    between atoms: _488  and  _489
REMARK  207  A    between atoms: _488  and  _491
REMARK  208  A    between atoms: _491  and  _492
REMARK  209  A    between atoms: _492  and  _493
REMARK  210  A    between atoms: _496  and  _498
REMARK  211  A    between atoms: _498  and  _499
REMARK  212  A    between atoms: _498  and  _501
REMARK  213  A    between atoms: _501  and  _502
REMARK  214  A    between atoms: _505  and  _507
REMARK  215  A    between atoms: _507  and  _508
REMARK  216  A    between atoms: _507  and  _510
REMARK  217  A    between atoms: _510  and  _511
REMARK  218  A    between atoms: _511  and  _512
REMARK  219  A    between atoms: _517  and  _519
REMARK  220  A    between atoms: _519  and  _520
REMARK  221  A    between atoms: _522  and  _524
REMARK  222  A    between atoms: _524  and  _525
REMARK  223  A    between atoms: _524  and  _527
REMARK  224  A    between atoms: _527  and  _528
REMARK  225  A    between atoms: _531  and  _533
REMARK  226  A    between atoms: _533  and  _534
REMARK  227  A    between atoms: _533  and  _536
REMARK  228  A    between atoms: _539  and  _541
REMARK  229  A    between atoms: _541  and  _542
REMARK  230  A    between atoms: _541  and  _544
REMARK  231  A    between atoms: _546  and  _548
REMARK  232  A    between atoms: _548  and  _549
REMARK  233  A    between atoms: _548  and  _551
REMARK  234  A    between atoms: _551  and  _552
REMARK  235  A    between atoms: _555  and  _557
REMARK  236  A    between atoms: _557  and  _558
REMARK  237  A    between atoms: _557  and  _560
REMARK  238  A    between atoms: _560  and  _561
REMARK  239  A    between atoms: _561  and  _562
REMARK  240  A    between atoms: _564  and  _566
REMARK  241  A    between atoms: _566  and  _567
REMARK  242  A    between atoms: _566  and  _569
REMARK  243  A    between atoms: _571  and  _573
REMARK  244  A    between atoms: _573  and  _574
REMARK  245  A    between atoms: _573  and  _576
REMARK  246  A    between atoms: _579  and  _581
REMARK  247  A    between atoms: _581  and  _582
REMARK  248  A    between atoms: _581  and  _584
REMARK  249  A    between atoms: _584  and  _585
REMARK  250  A    between atoms: _590  and  _592
REMARK  251  A    between atoms: _592  and  _593
REMARK  252  A    between atoms: _592  and  _595
REMARK  253  A    between atoms: _595  and  _596
REMARK  254  A    between atoms: _601  and  _602
REMARK                            x       y       z     vdW  Elec       q    Type
REMARK                         _______ _______ _______ _____ _____    ______ ____
ROOT
ATOM      1  CG  TYR A   1      -0.662   0.338  24.818  0.00  0.00    -0.020 A 
ATOM      2  CD2 TYR A   1      -0.171   0.295  26.111  0.00  0.00    -0.001 A 
ATOM      3  CE2 TYR A   1      -0.232   1.415  26.924  0.00  0.00    +0.036 A 
ATOM      4  CZ  TYR A   1      -0.757   2.584  26.435  0.00  0.00    +0.134 A 
ATOM      5  CE1 TYR A   1      -1.245   2.634  25.151  0.00  0.00    +0.036 A 
ATOM      6  CD1 TYR A   1      -1.185   1.530  24.357  0.00  0.00    -0.001 A 
ENDROOT
BRANCH   4   7
ATOM      7  OH  TYR A   1      -0.836   3.717  27.225  0.00  0.00    -0.506 OA
ATOM      8  HH  TYR A   1      -1.397   3.527  28.018  0.00  0.00    +0.292 HD
ENDBRANCH   4   7
BRANCH   1   9
ATOM      9  CB  TYR A   1      -0.603  -0.871  23.923  0.00  0.00    +0.051 C 
BRANCH   9  10
ATOM     10  CA  TYR A   1      -1.975  -1.481  23.668  0.00  0.00    +0.137 C 
BRANCH  10  11
ATOM     11  N   TYR A   1      -2.556  -1.932  24.927  0.00  0.00    -0.239 NA
ATOM     12  H   TYR A   1      -1.937  -2.110  25.744  0.00  0.00    +0.142 HD
ENDBRANCH  10  11
BRANCH  10  13
ATOM     13  C   TYR A   1      -1.823  -2.627  22.676  0.00  0.00    +0.224 C 
ATOM     14  O   TYR A   1      -1.562  -3.751  23.066  0.00  0.00    -0.287 OA
ENDBRANCH  10  13
ENDBRANCH   9  10
ENDBRANCH   1   9
TORSDOF 5
REMARK  Name = ../refined-set-2016/4xt2/4xt2_pocket.pdb
REMARK  254 active torsions:
REMARK  status: ('A' for Active; 'I' for Inactive)
REMARK    1  A    between atoms: _1  and  _3
REMARK    2  A    between atoms: _3  and  _4
REMARK    3  A    between atoms: _3  and  _6
REMARK    4  A    between atoms: _6  and  _7
REMARK    5  A    between atoms: _13  and  _15
REMARK    6  A    between atoms: _15  and  _16
REMARK    7  A    between atoms: _15  and  _18
REMARK    8  A    between atoms: _18  and  _19
REMARK    9  A    between atoms: _22  and  _24
REMARK   10  A    between atoms: _24  and  _25
REMARK   11  A    between atoms: _24  and  _27
REMARK   12  A    between atoms: _27  and  _28
REMARK   13  A    between atoms: _30  and  _32
REMARK   14  A    between atoms: _32  and  _33
REMARK   15  A    between atoms: _32  and  _35
REMARK   16  A    between atoms: _35  and  _36
REMARK   17  A    between atoms: _36  and  _37
REMARK   18  A    between atoms: _40  and  _42
REMARK   19  A    between atoms: _42  and  _43
REMARK   20  A    between atoms: _42  and  _45
REMARK   21  A    between atoms: _45  and  _46
REMARK   22  A    between atoms: _51  and  _53
REMARK   23  A    between atoms: _53  and  _54
REMARK   24  A    between atoms: _53  and  _56
REMARK   25  A    between atoms: _56  and  _57
REMARK   26  A    between atoms: _59  and  _61
REMARK   27  A    between atoms: _61  and  _62
REMARK   28  A    between atoms: _61  and  _64
REMARK   29  A    between atoms: _64  and  _65
REMARK   30  A    between atoms: _65  and  _66
REMARK   31  A    between atoms: _68  and  _70
REMARK   32  A    between atoms: _70  and  _71
REMARK   33  A    between atoms: _70  and  _73
REMARK   34  A    between atoms: _73  and  _74
REMARK   35  A    between atoms: _77  and  _79
REMARK   36  A    between atoms: _79  and  _80
REMARK   37  A    between atoms: _79  and  _82
REMARK   38  A    between atoms: _82  and  _83
REMARK   39  A    between atoms: _83  and  _84
REMARK   40  A    between atoms: _86  and  _88
REMARK   41  A    between atoms: _88  and  _89
REMARK   42  A    between atoms: _88  and  _91
REMARK   43  A    between atoms: _91  and  _92
REMARK   44  A    between atoms: _92  and  _93
REMARK   45  A    between atoms: _93  and  _94
REMARK   46  A    between atoms: _94  and  _95
REMARK   47  A    between atoms: _99  and  _101
REMARK   48  A    between atoms: _101  and  _102
REMARK   49  A    between atoms: _101  and  _104
REMARK   50  A    between atoms: _104  and  _105
REMARK   51  A    between atoms: _111  and  _113
REMARK   52  A    between atoms: _113  and  _114
REMARK   53  A    between atoms: _113  and  _116
REMARK   54  A    between atoms: _116  and  _117
REMARK   55  A    between atoms: _120  and  _122
REMARK   56  A    between atoms: _122  and  _123
REMARK   57  A    between atoms: _122  and  _125
REMARK   58  A    between atoms: _125  and  _126
REMARK   59  A    between atoms: _131  and  _132
REMARK   60  A    between atoms: _134  and  _136
REMARK   61  A    between atoms: _136  and  _137
REMARK   62  A    between atoms: _136  and  _139
REMARK   63  A    between atoms: _141  and  _143
REMARK   64  A    between atoms: _143  and  _144
REMARK   65  A    between atoms: _143  and  _146
REMARK   66  A    between atoms: _146  and  _147
REMARK   67  A    between atoms: _150  and  _152
REMARK   68  A    between atoms: _152  and  _153
REMARK   69  A    between atoms: _152  and  _155
REMARK   70  A    between atoms: _155  and  _156
REMARK   71  A    between atoms: _159  and  _161
REMARK   72  A    between atoms: _161  and  _162
REMARK   73  A    between atoms: _161  and  _164
REMARK   74  A    between atoms: _164  and  _165
REMARK   75  A    between atoms: _170  and  _171
REMARK   76  A    between atoms: _173  and  _175
REMARK   77  A    between atoms: _175  and  _176
REMARK   78  A    between atoms: _175  and  _178
REMARK   79  A    between atoms: _178  and  _179
REMARK   80  A    between atoms: _182  and  _184
REMARK   81  A    between atoms: _184  and  _185
REMARK   82  A    between atoms: _184  and  _187
REMARK   83  A    between atoms: _187  and  _188
REMARK   84  A    between atoms: _188  and  _189
REMARK   85  A    between atoms: _189  and  _190
REMARK   86  A    between atoms: _199  and  _201
REMARK   87  A    between atoms: _201  and  _202
REMARK   88  A    between atoms: _201  and  _204
REMARK   89  A    between atoms: _204  and  _205
REMARK   90  A    between atoms: _207  and  _209
REMARK   91  A    between atoms: _209  and  _210
REMARK   92  A    between atoms: _213  and  _215
REMARK   93  A    between atoms: _215  and  _216
REMARK   94  A    between atoms: _215  and  _218
REMARK   95  A    between atoms: _218  and  _219
REMARK   96  A    between atoms: _224  and  _225
REMARK   97  A    between atoms: _227  and  _229
REMARK   98  A    between atoms: _229  and  _230
REMARK   99  A    between atoms: _229  and  _232
REMARK  100  A    between atoms: _232  and  _233
REMARK  101  A    between atoms: _233  and  _234
REMARK  102  A    between atoms: _237  and  _239
REMARK  103  A    between atoms: _239  and  _240
REMARK  104  A    between atoms: _239  and  _242
REMARK  105  A    between atoms: _242  and  _243
REMARK  106  A    between atoms: _249  and  _251
REMARK  107  A    between atoms: _251  and  _252
REMARK  108  A    between atoms: _251  and  _254
REMARK  109  A    between atoms: _254  and  _255
REMARK  110  A    between atoms: _260  and  _261
REMARK  111  A    between atoms: _263  and  _265
REMARK  112  A    between atoms: _265  and  _266
REMARK  113  A    between atoms: _265  and  _268
REMARK  114  A    between atoms: _268  and  _269
REMARK  115  A    between atoms: _274  and  _276
REMARK  116  A    between atoms: _276  and  _277
REMARK  117  A    between atoms: _276  and  _279
REMARK  118  A    between atoms: _279  and  _280
REMARK  119  A    between atoms: _285  and  _287
REMARK  120  A    between atoms: _287  and  _288
REMARK  121  A    between atoms: _287  and  _290
REMARK  122  A    between atoms: _290  and  _291
REMARK  123  A    between atoms: _291  and  _292
REMARK  124  A    between atoms: _294  and  _296
REMARK  125  A    between atoms: _296  and  _297
REMARK  126  A    between atoms: _296  and  _299
REMARK  127  A    between atoms: _299  and  _300
REMARK  128  A    between atoms: _303  and  _305
REMARK  129  A    between atoms: _305  and  _306
REMARK  130  A    between atoms: _305  and  _308
REMARK  131  A    between atoms: _308  and  _309
REMARK  132  A    between atoms: _309  and  _310
REMARK  133  A    between atoms: _310  and  _311
REMARK  134  A    between atoms: _311  and  _312
REMARK  135  A    between atoms: _316  and  _318
REMARK  136  A    between atoms: _318  and  _319
REMARK  137  A    between atoms: _318  and  _321
REMARK  138  A    between atoms: _321  and  _322
REMARK  139  A    between atoms: _324  and  _326
REMARK  140  A    between atoms: _326  and  _327
REMARK  141  A    between atoms: _326  and  _329
REMARK  142  A    between atoms: _329  and  _330
REMARK  143  A    between atoms: _335  and  _337
REMARK  144  A    between atoms: _337  and  _338
REMARK  145  A    between atoms: _337  and  _340
REMARK  146  A    between atoms: _340  and  _341
REMARK  147  A    between atoms: _341  and  _342
REMARK  148  A    between atoms: _347  and  _349
REMARK  149  A    between atoms: _349  and  _350
REMARK  150  A    between atoms: _349  and  _352
REMARK  151  A    between atoms: _352  and  _353
REMARK  152  A    between atoms: _358  and  _360
REMARK  153  A    between atoms: _360  and  _361
REMARK  154  A    between atoms: _360  and  _363
REMARK  155  A    between atoms: _363  and  _364
REMARK  156  A    between atoms: _367  and  _369
REMARK  157  A    between atoms: _369  and  _370
REMARK  158  A    between atoms: _369  and  _372
REMARK  159  A    between atoms: _374  and  _376
REMARK  160  A    between atoms: _376  and  _377
REMARK  161  A    between atoms: _379  and  _381
REMARK  162  A    between atoms: _381  and  _382
REMARK  163  A    between atoms: _381  and  _384
REMARK  164  A    between atoms: _384  and  _385
REMARK  165  A    between atoms: _385  and  _386
REMARK  166  A    between atoms: _391  and  _393
REMARK  167  A    between atoms: _393  and  _394
REMARK  168  A    between atoms: _393  and  _396
REMARK  169  A    between atoms: _399  and  _401
REMARK  170  A    between atoms: _401  and  _402
REMARK  171  A    between atoms: _401  and  _404
REMARK  172  A    between atoms: _407  and  _409
REMARK  173  A    between atoms: _409  and  _410
REMARK  174  A    between atoms: _409  and  _412
REMARK  175  A    between atoms: _412  and  _413
REMARK  176  A    between atoms: _415  and  _417
REMARK  177  A    between atoms: _417  and  _418
REMARK  178  A    between atoms: _420  and  _422
REMARK  179  A    between atoms: _422  and  _423
REMARK  180  A    between atoms: _422  and  _425
REMARK  181  A    between atoms: _425  and  _426
REMARK  182  A    between atoms: _431  and  _432
REMARK  183  A    between atoms: _434  and  _436
REMARK  184  A    between atoms: _436  and  _437
REMARK  185  A    between atoms: _436  and  _439
REMARK  186  A    between atoms: _439  and  _440
REMARK  187  A    between atoms: _440  and  _441
REMARK  188  A    between atoms: _441  and  _442
REMARK  189  A    between atoms: _451  and  _453
REMARK  190  A    between atoms: _453  and  _454
REMARK  191  A    between atoms: _453  and  _456
REMARK  192  A    between atoms: _456  and  _457
REMARK  193  A    between atoms: _457  and  _458
REMARK  194  A    between atoms: _460  and  _462
REMARK  195  A    between atoms: _462  and  _463
REMARK  196  A    between atoms: _462  and  _465
REMARK  197  A    between atoms: _465  and  _466
REMARK  198  A    between atoms: _469  and  _471
REMARK  199  A    between atoms: _471  and  _472
REMARK  200  A    between atoms: _471  and  _474
REMARK  201  A    between atoms: _477  and  _479
REMARK  202  A    between atoms: _479  and  _480
REMARK  203  A    between atoms: _479  and  _482
REMARK  204  A    between atoms: _482  and  _483
REMARK  205  A    between atoms: _486  and  _488
REMARK  206  A    between atoms: _488  and  _489
REMARK  207  A    between atoms: _488  and  _491
REMARK  208  A    between atoms: _491  and  _492
REMARK  209  A    between atoms: _492  and  _493
REMARK  210  A    between atoms: _496  and  _498
REMARK  211  A    between atoms: _498  and  _499
REMARK  212  A    between atoms: _498  and  _501
REMARK  213  A    between atoms: _501  and  _502
REMARK  214  A    between atoms: _505  and  _507
REMARK  215  A    between atoms: _507  and  _508
REMARK  216  A    between atoms: _507  and  _510
REMARK  217  A    between atoms: _510  and  _511
REMARK  218  A    between atoms: _511  and  _512
REMARK  219  A    between atoms: _517  and  _519
REMARK  220  A    between atoms: _519  and  _520
REMARK  221  A    between atoms: _522  and  _524
REMARK  222  A    between atoms: _524  and  _525
REMARK  223  A    between atoms: _524  and  _527
REMARK  224  A    between atoms: _527  and  _528
REMARK  225  A    between atoms: _531  and  _533
REMARK  226  A    between atoms: _533  and  _534
REMARK  227  A    between atoms: _533  and  _536
REMARK  228  A    between atoms: _539  and  _541
REMARK  229  A    between atoms: _541  and  _542
REMARK  230  A    between atoms: _541  and  _544
REMARK  231  A    between atoms: _546  and  _548
REMARK  232  A    between atoms: _548  and  _549
REMARK  233  A    between atoms: _548  and  _551
REMARK  234  A    between atoms: _551  and  _552
REMARK  235  A    between atoms: _555  and  _557
REMARK  236  A    between atoms: _557  and  _558
REMARK  237  A    between atoms: _557  and  _560
REMARK  238  A    between atoms: _560  and  _561
REMARK  239  A    between atoms: _561  and  _562
REMARK  240  A    between atoms: _564  and  _566
REMARK  241  A    between atoms: _566  and  _567
REMARK  242  A    between atoms: _566  and  _569
REMARK  243  A    between atoms: _571  and  _573
REMARK  244  A    between atoms: _573  and  _574
REMARK  245  A    between atoms: _573  and  _576
REMARK  246  A    between atoms: _579  and  _581
REMARK  247  A    between atoms: _581  and  _582
REMARK  248  A    between atoms: _581  and  _584
REMARK  249  A    between atoms: _584  and  _585
REMARK  250  A    between atoms: _590  and  _592
REMARK  251  A    between atoms: _592  and  _593
REMARK  252  A    between atoms: _592  and  _595
REMARK  253  A    between atoms: _595  and  _596
REMARK  254  A    between atoms: _601  and  _602
REMARK                            x       y       z     vdW  Elec       q    Type
REMARK                         _______ _______ _______ _____ _____    ______ ____
ROOT
ATOM      1  CA  LEU A   1       3.750   1.235  20.028  0.00  0.00    +0.133 C 
ENDROOT
BRANCH   1   2
ATOM      2  N   LEU A   1       2.629   0.821  19.181  0.00  0.00    -0.239 NA
ATOM      3  H   LEU A   1       2.481  -0.191  18.991  0.00  0.00    +0.142 HD
ENDBRANCH   1   2
BRANCH   1   4
ATOM      4  C   LEU A   1       4.974   1.504  19.177  0.00  0.00    +0.224 C 
ATOM      5  O   LEU A   1       5.854   2.251  19.578  0.00  0.00    -0.287 OA
ENDBRANCH   1   4
BRANCH   1   6
ATOM      6  CB  LEU A   1       4.102   0.140  21.036  0.00  0.00    +0.025 C 
BRANCH   6   7
ATOM      7  CG  LEU A   1       2.998  -0.208  22.034  0.00  0.00    +0.002 C 
ATOM      8  CD2 LEU A   1       3.468  -1.384  22.880  0.00  0.00    +0.000 C 
ATOM      9  CD1 LEU A   1       2.654   1.009  22.869  0.00  0.00    +0.000 C 
ENDBRANCH   6   7
ENDBRANCH   1   6
TORSDOF 4
REMARK  Name = ../refined-set-2016/4xt2/4xt2_pocket.pdb
REMARK  254 active torsions:
REMARK  status: ('A' for Active; 'I' for Inactive)
REMARK    1  A    between atoms: _1  and  _3
REMARK    2  A    between atoms: _3  and  _4
REMARK    3  A    between atoms: _3  and  _6
REMARK    4  A    between atoms: _6  and  _7
REMARK    5  A    between atoms: _13  and  _15
REMARK    6  A    between atoms: _15  and  _16
REMARK    7  A    between atoms: _15  and  _18
REMARK    8  A    between atoms: _18  and  _19
REMARK    9  A    between atoms: _22  and  _24
REMARK   10  A    between atoms: _24  and  _25
REMARK   11  A    between atoms: _24  and  _27
REMARK   12  A    between atoms: _27  and  _28
REMARK   13  A    between atoms: _30  and  _32
REMARK   14  A    between atoms: _32  and  _33
REMARK   15  A    between atoms: _32  and  _35
REMARK   16  A    between atoms: _35  and  _36
REMARK   17  A    between atoms: _36  and  _37
REMARK   18  A    between atoms: _40  and  _42
REMARK   19  A    between atoms: _42  and  _43
REMARK   20  A    between atoms: _42  and  _45
REMARK   21  A    between atoms: _45  and  _46
REMARK   22  A    between atoms: _51  and  _53
REMARK   23  A    between atoms: _53  and  _54
REMARK   24  A    between atoms: _53  and  _56
REMARK   25  A    between atoms: _56  and  _57
REMARK   26  A    between atoms: _59  and  _61
REMARK   27  A    between atoms: _61  and  _62
REMARK   28  A    between atoms: _61  and  _64
REMARK   29  A    between atoms: _64  and  _65
REMARK   30  A    between atoms: _65  and  _66
REMARK   31  A    between atoms: _68  and  _70
REMARK   32  A    between atoms: _70  and  _71
REMARK   33  A    between atoms: _70  and  _73
REMARK   34  A    between atoms: _73  and  _74
REMARK   35  A    between atoms: _77  and  _79
REMARK   36  A    between atoms: _79  and  _80
REMARK   37  A    between atoms: _79  and  _82
REMARK   38  A    between atoms: _82  and  _83
REMARK   39  A    between atoms: _83  and  _84
REMARK   40  A    between atoms: _86  and  _88
REMARK   41  A    between atoms: _88  and  _89
REMARK   42  A    between atoms: _88  and  _91
REMARK   43  A    between atoms: _91  and  _92
REMARK   44  A    between atoms: _92  and  _93
REMARK   45  A    between atoms: _93  and  _94
REMARK   46  A    between atoms: _94  and  _95
REMARK   47  A    between atoms: _99  and  _101
REMARK   48  A    between atoms: _101  and  _102
REMARK   49  A    between atoms: _101  and  _104
REMARK   50  A    between atoms: _104  and  _105
REMARK   51  A    between atoms: _111  and  _113
REMARK   52  A    between atoms: _113  and  _114
REMARK   53  A    between atoms: _113  and  _116
REMARK   54  A    between atoms: _116  and  _117
REMARK   55  A    between atoms: _120  and  _122
REMARK   56  A    between atoms: _122  and  _123
REMARK   57  A    between atoms: _122  and  _125
REMARK   58  A    between atoms: _125  and  _126
REMARK   59  A    between atoms: _131  and  _132
REMARK   60  A    between atoms: _134  and  _136
REMARK   61  A    between atoms: _136  and  _137
REMARK   62  A    between atoms: _136  and  _139
REMARK   63  A    between atoms: _141  and  _143
REMARK   64  A    between atoms: _143  and  _144
REMARK   65  A    between atoms: _143  and  _146
REMARK   66  A    between atoms: _146  and  _147
REMARK   67  A    between atoms: _150  and  _152
REMARK   68  A    between atoms: _152  and  _153
REMARK   69  A    between atoms: _152  and  _155
REMARK   70  A    between atoms: _155  and  _156
REMARK   71  A    between atoms: _159  and  _161
REMARK   72  A    between atoms: _161  and  _162
REMARK   73  A    between atoms: _161  and  _164
REMARK   74  A    between atoms: _164  and  _165
REMARK   75  A    between atoms: _170  and  _171
REMARK   76  A    between atoms: _173  and  _175
REMARK   77  A    between atoms: _175  and  _176
REMARK   78  A    between atoms: _175  and  _178
REMARK   79  A    between atoms: _178  and  _179
REMARK   80  A    between atoms: _182  and  _184
REMARK   81  A    between atoms: _184  and  _185
REMARK   82  A    between atoms: _184  and  _187
REMARK   83  A    between atoms: _187  and  _188
REMARK   84  A    between atoms: _188  and  _189
REMARK   85  A    between atoms: _189  and  _190
REMARK   86  A    between atoms: _199  and  _201
REMARK   87  A    between atoms: _201  and  _202
REMARK   88  A    between atoms: _201  and  _204
REMARK   89  A    between atoms: _204  and  _205
REMARK   90  A    between atoms: _207  and  _209
REMARK   91  A    between atoms: _209  and  _210
REMARK   92  A    between atoms: _213  and  _215
REMARK   93  A    between atoms: _215  and  _216
REMARK   94  A    between atoms: _215  and  _218
REMARK   95  A    between atoms: _218  and  _219
REMARK   96  A    between atoms: _224  and  _225
REMARK   97  A    between atoms: _227  and  _229
REMARK   98  A    between atoms: _229  and  _230
REMARK   99  A    between atoms: _229  and  _232
REMARK  100  A    between atoms: _232  and  _233
REMARK  101  A    between atoms: _233  and  _234
REMARK  102  A    between atoms: _237  and  _239
REMARK  103  A    between atoms: _239  and  _240
REMARK  104  A    between atoms: _239  and  _242
REMARK  105  A    between atoms: _242  and  _243
REMARK  106  A    between atoms: _249  and  _251
REMARK  107  A    between atoms: _251  and  _252
REMARK  108  A    between atoms: _251  and  _254
REMARK  109  A    between atoms: _254  and  _255
REMARK  110  A    between atoms: _260  and  _261
REMARK  111  A    between atoms: _263  and  _265
REMARK  112  A    between atoms: _265  and  _266
REMARK  113  A    between atoms: _265  and  _268
REMARK  114  A    between atoms: _268  and  _269
REMARK  115  A    between atoms: _274  and  _276
REMARK  116  A    between atoms: _276  and  _277
REMARK  117  A    between atoms: _276  and  _279
REMARK  118  A    between atoms: _279  and  _280
REMARK  119  A    between atoms: _285  and  _287
REMARK  120  A    between atoms: _287  and  _288
REMARK  121  A    between atoms: _287  and  _290
REMARK  122  A    between atoms: _290  and  _291
REMARK  123  A    between atoms: _291  and  _292
REMARK  124  A    between atoms: _294  and  _296
REMARK  125  A    between atoms: _296  and  _297
REMARK  126  A    between atoms: _296  and  _299
REMARK  127  A    between atoms: _299  and  _300
REMARK  128  A    between atoms: _303  and  _305
REMARK  129  A    between atoms: _305  and  _306
REMARK  130  A    between atoms: _305  and  _308
REMARK  131  A    between atoms: _308  and  _309
REMARK  132  A    between atoms: _309  and  _310
REMARK  133  A    between atoms: _310  and  _311
REMARK  134  A    between atoms: _311  and  _312
REMARK  135  A    between atoms: _316  and  _318
REMARK  136  A    between atoms: _318  and  _319
REMARK  137  A    between atoms: _318  and  _321
REMARK  138  A    between atoms: _321  and  _322
REMARK  139  A    between atoms: _324  and  _326
REMARK  140  A    between atoms: _326  and  _327
REMARK  141  A    between atoms: _326  and  _329
REMARK  142  A    between atoms: _329  and  _330
REMARK  143  A    between atoms: _335  and  _337
REMARK  144  A    between atoms: _337  and  _338
REMARK  145  A    between atoms: _337  and  _340
REMARK  146  A    between atoms: _340  and  _341
REMARK  147  A    between atoms: _341  and  _342
REMARK  148  A    between atoms: _347  and  _349
REMARK  149  A    between atoms: _349  and  _350
REMARK  150  A    between atoms: _349  and  _352
REMARK  151  A    between atoms: _352  and  _353
REMARK  152  A    between atoms: _358  and  _360
REMARK  153  A    between atoms: _360  and  _361
REMARK  154  A    between atoms: _360  and  _363
REMARK  155  A    between atoms: _363  and  _364
REMARK  156  A    between atoms: _367  and  _369
REMARK  157  A    between atoms: _369  and  _370
REMARK  158  A    between atoms: _369  and  _372
REMARK  159  A    between atoms: _374  and  _376
REMARK  160  A    between atoms: _376  and  _377
REMARK  161  A    between atoms: _379  and  _381
REMARK  162  A    between atoms: _381  and  _382
REMARK  163  A    between atoms: _381  and  _384
REMARK  164  A    between atoms: _384  and  _385
REMARK  165  A    between atoms: _385  and  _386
REMARK  166  A    between atoms: _391  and  _393
REMARK  167  A    between atoms: _393  and  _394
REMARK  168  A    between atoms: _393  and  _396
REMARK  169  A    between atoms: _399  and  _401
REMARK  170  A    between atoms: _401  and  _402
REMARK  171  A    between atoms: _401  and  _404
REMARK  172  A    between atoms: _407  and  _409
REMARK  173  A    between atoms: _409  and  _410
REMARK  174  A    between atoms: _409  and  _412
REMARK  175  A    between atoms: _412  and  _413
REMARK  176  A    between atoms: _415  and  _417
REMARK  177  A    between atoms: _417  and  _418
REMARK  178  A    between atoms: _420  and  _422
REMARK  179  A    between atoms: _422  and  _423
REMARK  180  A    between atoms: _422  and  _425
REMARK  181  A    between atoms: _425  and  _426
REMARK  182  A    between atoms: _431  and  _432
REMARK  183  A    between atoms: _434  and  _436
REMARK  184  A    between atoms: _436  and  _437
REMARK  185  A    between atoms: _436  and  _439
REMARK  186  A    between atoms: _439  and  _440
REMARK  187  A    between atoms: _440  and  _441
REMARK  188  A    between atoms: _441  and  _442
REMARK  189  A    between atoms: _451  and  _453
REMARK  190  A    between atoms: _453  and  _454
REMARK  191  A    between atoms: _453  and  _456
REMARK  192  A    between atoms: _456  and  _457
REMARK  193  A    between atoms: _457  and  _458
REMARK  194  A    between atoms: _460  and  _462
REMARK  195  A    between atoms: _462  and  _463
REMARK  196  A    between atoms: _462  and  _465
REMARK  197  A    between atoms: _465  and  _466
REMARK  198  A    between atoms: _469  and  _471
REMARK  199  A    between atoms: _471  and  _472
REMARK  200  A    between atoms: _471  and  _474
REMARK  201  A    between atoms: _477  and  _479
REMARK  202  A    between atoms: _479  and  _480
REMARK  203  A    between atoms: _479  and  _482
REMARK  204  A    between atoms: _482  and  _483
REMARK  205  A    between atoms: _486  and  _488
REMARK  206  A    between atoms: _488  and  _489
REMARK  207  A    between atoms: _488  and  _491
REMARK  208  A    between atoms: _491  and  _492
REMARK  209  A    between atoms: _492  and  _493
REMARK  210  A    between atoms: _496  and  _498
REMARK  211  A    between atoms: _498  and  _499
REMARK  212  A    between atoms: _498  and  _501
REMARK  213  A    between atoms: _501  and  _502
REMARK  214  A    between atoms: _505  and  _507
REMARK  215  A    between atoms: _507  and  _508
REMARK  216  A    between atoms: _507  and  _510
REMARK  217  A    between atoms: _510  and  _511
REMARK  218  A    between atoms: _511  and  _512
REMARK  219  A    between atoms: _517  and  _519
REMARK  220  A    between atoms: _519  and  _520
REMARK  221  A    between atoms: _522  and  _524
REMARK  222  A    between atoms: _524  and  _525
REMARK  223  A    between atoms: _524  and  _527
REMARK  224  A    between atoms: _527  and  _528
REMARK  225  A    between atoms: _531  and  _533
REMARK  226  A    between atoms: _533  and  _534
REMARK  227  A    between atoms: _533  and  _536
REMARK  228  A    between atoms: _539  and  _541
REMARK  229  A    between atoms: _541  and  _542
REMARK  230  A    between atoms: _541  and  _544
REMARK  231  A    between atoms: _546  and  _548
REMARK  232  A    between atoms: _548  and  _549
REMARK  233  A    between atoms: _548  and  _551
REMARK  234  A    between atoms: _551  and  _552
REMARK  235  A    between atoms: _555  and  _557
REMARK  236  A    between atoms: _557  and  _558
REMARK  237  A    between atoms: _557  and  _560
REMARK  238  A    between atoms: _560  and  _561
REMARK  239  A    between atoms: _561  and  _562
REMARK  240  A    between atoms: _564  and  _566
REMARK  241  A    between atoms: _566  and  _567
REMARK  242  A    between atoms: _566  and  _569
REMARK  243  A    between atoms: _571  and  _573
REMARK  244  A    between atoms: _573  and  _574
REMARK  245  A    between atoms: _573  and  _576
REMARK  246  A    between atoms: _579  and  _581
REMARK  247  A    between atoms: _581  and  _582
REMARK  248  A    between atoms: _581  and  _584
REMARK  249  A    between atoms: _584  and  _585
REMARK  250  A    between atoms: _590  and  _592
REMARK  251  A    between atoms: _592  and  _593
REMARK  252  A    between atoms: _592  and  _595
REMARK  253  A    between atoms: _595  and  _596
REMARK  254  A    between atoms: _601  and  _602
REMARK                            x       y       z     vdW  Elec       q    Type
REMARK                         _______ _______ _______ _____ _____    ______ ____
ROOT
ATOM      1  C   TYR A   4       6.845   9.195  27.215  0.00  0.00    +0.241 C 
ATOM      2  O   TYR A   4       6.247  10.008  27.916  0.00  0.00    -0.273 OA
ATOM      3  N   GLU A   5       6.257   8.584  26.201  0.00  0.00    -0.297 N 
ATOM      4  H   GLU A   5       6.809   7.986  25.554  0.00  0.00    +0.150 HD
ENDROOT
BRANCH   1   5
ATOM      5  CA  TYR A   4       8.305   8.859  27.485  0.00  0.00    +0.153 C 
BRANCH   5   8
ATOM      6  C   ALA A   3       8.299   6.459  27.066  0.00  0.00    +0.241 C 
ATOM      7  O   ALA A   3       7.446   6.280  27.916  0.00  0.00    -0.273 OA
ATOM      8  N   TYR A   4       8.766   7.667  26.772  0.00  0.00    -0.297 N 
ATOM      9  H   TYR A   4       9.475   7.768  26.018  0.00  0.00    +0.150 HD
BRANCH   6  10
ATOM     10  CA  ALA A   3       8.860   5.279  26.265  0.00  0.00    +0.149 C 
ATOM     11  CB  ALA A   3      10.049   4.656  26.998  0.00  0.00    +0.031 C 
BRANCH  10  13
ATOM     12  C   SER A   2       8.386   6.304  24.117  0.00  0.00    +0.243 C 
ATOM     13  N   ALA A   3       9.248   5.679  24.910  0.00  0.00    -0.297 N 
ATOM     14  H   ALA A   3      10.207   5.471  24.566  0.00  0.00    +0.150 HD
ATOM     15  O   SER A   2       7.205   6.471  24.433  0.00  0.00    -0.273 OA
BRANCH  12  16
ATOM     16  CA  SER A   2       8.959   6.823  22.788  0.00  0.00    +0.178 C 
BRANCH  16  18
ATOM     17  C   ARG A   1       7.879   5.535  21.030  0.00  0.00    +0.238 C 
ATOM     18  N   SER A   2       8.044   6.681  21.675  0.00  0.00    -0.295 N 
ATOM     19  H   SER A   2       7.495   7.510  21.370  0.00  0.00    +0.150 HD
ATOM     20  O   ARG A   1       8.404   4.474  21.372  0.00  0.00    -0.274 OA
BRANCH  17  21
ATOM     21  CA  ARG A   1       6.951   5.611  19.826  0.00  0.00    +0.145 C 
BRANCH  21  22
ATOM     22  N   ARG A   1       7.349   4.676  18.787  0.00  0.00    -0.238 NA
ATOM     23  H   ARG A   1       7.015   3.692  18.828  0.00  0.00    +0.142 HD
ENDBRANCH  21  22
BRANCH  21  24
ATOM     24  CB  ARG A   1       5.485   5.400  20.223  0.00  0.00    +0.030 C 
BRANCH  24  25
ATOM     25  CG  ARG A   1       4.541   5.845  19.088  0.00  0.00    +0.045 C 
BRANCH  25  26
ATOM     26  CD  ARG A   1       3.082   5.662  19.418  0.00  0.00    +0.174 C 
BRANCH  26  27
ATOM     27  NE  ARG A   1       2.570   6.723  20.272  0.00  0.00    -0.265 N 
ATOM     28  CZ  ARG A   1       1.454   6.630  20.992  0.00  0.00    +0.342 C 
ATOM     29  NH2 ARG A   1       1.064   7.649  21.744  0.00  0.00    -0.292 N 
ATOM     30 HH21 ARG A   1       0.192   7.576  22.306  0.00  0.00    +0.255 HD
ATOM     31 HH22 ARG A   1       1.630   8.521  21.772  0.00  0.00    +0.255 HD
ATOM     32  NH1 ARG A   1       0.727   5.520  20.962  0.00  0.00    -0.292 N 
ATOM     33 HH11 ARG A   1      -0.144   5.453  21.527  0.00  0.00    +0.255 HD
ATOM     34 HH12 ARG A   1       1.028   4.717  20.374  0.00  0.00    +0.255 HD
ATOM     35  HE  ARG A   1       3.110   7.610  20.323  0.00  0.00    +0.259 HD
ENDBRANCH  26  27
ENDBRANCH  25  26
ENDBRANCH  24  25
ENDBRANCH  21  24
ENDBRANCH  17  21
ENDBRANCH  16  18
BRANCH  16  36
ATOM     36  CB  SER A   2       9.322   8.296  22.935  0.00  0.00    +0.166 C 
BRANCH  36  37
ATOM     37  OG  SER A   2      10.176   8.490  24.040  0.00  0.00    -0.380 OA
ATOM     38  H   SER A   2      11.006   7.966  23.910  0.00  0.00    +0.211 HD
ENDBRANCH  36  37
ENDBRANCH  16  36
ENDBRANCH  12  16
ENDBRANCH  10  13
ENDBRANCH   6  10
ENDBRANCH   5   8
BRANCH   5  39
ATOM     39  CB  TYR A   4       9.177  10.074  27.134  0.00  0.00    +0.055 C 
BRANCH  39  40
ATOM     40  CG  TYR A   4      10.546   9.947  27.690  0.00  0.00    -0.020 A 
ATOM     41  CD2 TYR A   4      10.775  10.137  29.041  0.00  0.00    -0.001 A 
ATOM     42  CE2 TYR A   4      12.031  10.004  29.567  0.00  0.00    +0.036 A 
ATOM     43  CZ  TYR A   4      13.066   9.664  28.749  0.00  0.00    +0.134 A 
ATOM     44  CE1 TYR A   4      12.864   9.451  27.408  0.00  0.00    +0.036 A 
ATOM     45  CD1 TYR A   4      11.608   9.583  26.885  0.00  0.00    -0.001 A 
BRANCH  43  46
ATOM     46  OH  TYR A   4      14.315   9.522  29.281  0.00  0.00    -0.506 OA
ATOM     47  HH  TYR A   4      14.596  10.377  29.693  0.00  0.00    +0.292 HD
ENDBRANCH  43  46
ENDBRANCH  39  40
ENDBRANCH   5  39
ENDBRANCH   1   5
BRANCH   3  48
ATOM     48  CA  GLU A   5       4.822   8.760  26.002  0.00  0.00    +0.149 C 
BRANCH  48  49
ATOM     49  C   GLU A   5       4.014   7.883  26.959  0.00  0.00    +0.241 C 
ATOM     50  N   PHE A   6       4.676   6.941  27.636  0.00  0.00    -0.297 N 
ATOM     51  H   PHE A   6       5.712   6.895  27.560  0.00  0.00    +0.150 HD
ATOM     52  O   GLU A   5       2.820   8.101  27.138  0.00  0.00    -0.273 OA
BRANCH  50  53
ATOM     53  CA  PHE A   6       3.973   5.964  28.489  0.00  0.00    +0.153 C 
BRANCH  53  54
ATOM     54  C   PHE A   6       4.398   5.941  29.960  0.00  0.00    +0.241 C 
ATOM     55  O   PHE A   6       3.627   5.514  30.806  0.00  0.00    -0.273 OA
ATOM     56  N   TYR A   7       5.602   6.391  30.289  0.00  0.00    -0.297 N 
ATOM     57  H   TYR A   7       6.259   6.715  29.551  0.00  0.00    +0.150 HD
BRANCH  56  58
ATOM     58  CA  TYR A   7       5.999   6.428  31.694  0.00  0.00    +0.153 C 
BRANCH  58  59
ATOM     59  C   TYR A   7       5.094   7.353  32.484  0.00  0.00    +0.241 C 
ATOM     60  N   HIS A   8       4.653   6.897  33.656  0.00  0.00    -0.298 N 
ATOM     61  H   HIS A   8       4.737   5.885  33.879  0.00  0.00    +0.150 HD
ATOM     62  O   TYR A   7       4.822   8.496  32.068  0.00  0.00    -0.273 OA
BRANCH  60  63
ATOM     63  CA  HIS A   8       4.058   7.798  34.622  0.00  0.00    +0.143 C 
BRANCH  63  64
ATOM     64  C   HIS A   8       4.994   8.988  34.902  0.00  0.00    +0.227 C 
ATOM     65  O   HIS A   8       6.214   8.855  34.948  0.00  0.00    -0.286 OA
ENDBRANCH  63  64
BRANCH  63  66
ATOM     66  CB  HIS A   8       3.752   7.020  35.908  0.00  0.00    +0.075 C 
BRANCH  66  67
ATOM     67  CG  HIS A   8       2.802   7.715  36.841  0.00  0.00    +0.082 A 
ATOM     68  ND1 HIS A   8       3.188   8.754  37.655  0.00  0.00    -0.227 NA
ATOM     69  CE1 HIS A   8       2.154   9.161  38.370  0.00  0.00    +0.199 A 
ATOM     70  NE2 HIS A   8       1.106   8.427  38.042  0.00  0.00    -0.221 NA
ATOM     71  CD2 HIS A   8       1.489   7.507  37.093  0.00  0.00    +0.115 A 
ENDBRANCH  66  67
ENDBRANCH  63  66
ENDBRANCH  60  63
ENDBRANCH  58  59
BRANCH  58  72
ATOM     72  CB  TYR A   7       7.414   6.973  31.869  0.00  0.00    +0.055 C 
BRANCH  72  73
ATOM     73  CG  TYR A   7       8.567   6.147  31.334  0.00  0.00    -0.020 A 
ATOM     74  CD2 TYR A   7       8.597   4.773  31.457  0.00  0.00    -0.001 A 
ATOM     75  CE2 TYR A   7       9.677   4.042  30.993  0.00  0.00    +0.036 A 
ATOM     76  CZ  TYR A   7      10.731   4.695  30.381  0.00  0.00    +0.134 A 
ATOM     77  CE1 TYR A   7      10.730   6.050  30.271  0.00  0.00    +0.036 A 
ATOM     78  CD1 TYR A   7       9.653   6.773  30.735  0.00  0.00    -0.001 A 
BRANCH  76  79
ATOM     79  OH  TYR A   7      11.825   3.993  29.917  0.00  0.00    -0.506 OA
ATOM     80  HH  TYR A   7      11.681   3.025  30.065  0.00  0.00    +0.292 HD
ENDBRANCH  76  79
ENDBRANCH  72  73
ENDBRANCH  58  72
ENDBRANCH  56  58
ENDBRANCH  53  54
BRANCH  53  81
ATOM     81  CB  PHE A   6       4.102   4.565  27.892  0.00  0.00    +0.055 C 
BRANCH  81  82
ATOM     82  CG  PHE A   6       3.736   4.500  26.445  0.00  0.00    -0.020 A 
ATOM     83  CD2 PHE A   6       2.412   4.346  26.057  0.00  0.00    -0.004 A 
ATOM     84  CE2 PHE A   6       2.074   4.308  24.730  0.00  0.00    -0.000 A 
ATOM     85  CZ  PHE A   6       3.053   4.418  23.773  0.00  0.00    -0.000 A 
ATOM     86  CE1 PHE A   6       4.374   4.570  24.144  0.00  0.00    -0.000 A 
ATOM     87  CD1 PHE A   6       4.709   4.612  25.472  0.00  0.00    -0.004 A 
ENDBRANCH  81  82
ENDBRANCH  53  81
ENDBRANCH  50  53
ENDBRANCH  48  49
BRANCH  48  88
ATOM     88  CB  GLU A   5       4.439   8.485  24.547  0.00  0.00    +0.041 C 
BRANCH  88  89
ATOM     89  CG  GLU A   5       5.147   9.377  23.554  0.00  0.00    +0.116 C 
BRANCH  89  90
ATOM     90  CD  GLU A   5       4.687   9.116  22.147  0.00  0.00    +0.365 C 
ATOM     91  OE2 GLU A   5       3.458   9.160  21.930  0.00  0.00    -0.246 OA
ATOM     92  OE1 GLU A   5       5.546   8.840  21.272  0.00  0.00    -0.246 OA
ENDBRANCH  89  90
ENDBRANCH  88  89
ENDBRANCH  48  88
ENDBRANCH   3  48
TORSDOF 35
REMARK  Name = ../refined-set-2016/4xt2/4xt2_pocket.pdb
REMARK  254 active torsions:
REMARK  status: ('A' for Active; 'I' for Inactive)
REMARK    1  A    between atoms: _1  and  _3
REMARK    2  A    between atoms: _3  and  _4
REMARK    3  A    between atoms: _3  and  _6
REMARK    4  A    between atoms: _6  and  _7
REMARK    5  A    between atoms: _13  and  _15
REMARK    6  A    between atoms: _15  and  _16
REMARK    7  A    between atoms: _15  and  _18
REMARK    8  A    between atoms: _18  and  _19
REMARK    9  A    between atoms: _22  and  _24
REMARK   10  A    between atoms: _24  and  _25
REMARK   11  A    between atoms: _24  and  _27
REMARK   12  A    between atoms: _27  and  _28
REMARK   13  A    between atoms: _30  and  _32
REMARK   14  A    between atoms: _32  and  _33
REMARK   15  A    between atoms: _32  and  _35
REMARK   16  A    between atoms: _35  and  _36
REMARK   17  A    between atoms: _36  and  _37
REMARK   18  A    between atoms: _40  and  _42
REMARK   19  A    between atoms: _42  and  _43
REMARK   20  A    between atoms: _42  and  _45
REMARK   21  A    between atoms: _45  and  _46
REMARK   22  A    between atoms: _51  and  _53
REMARK   23  A    between atoms: _53  and  _54
REMARK   24  A    between atoms: _53  and  _56
REMARK   25  A    between atoms: _56  and  _57
REMARK   26  A    between atoms: _59  and  _61
REMARK   27  A    between atoms: _61  and  _62
REMARK   28  A    between atoms: _61  and  _64
REMARK   29  A    between atoms: _64  and  _65
REMARK   30  A    between atoms: _65  and  _66
REMARK   31  A    between atoms: _68  and  _70
REMARK   32  A    between atoms: _70  and  _71
REMARK   33  A    between atoms: _70  and  _73
REMARK   34  A    between atoms: _73  and  _74
REMARK   35  A    between atoms: _77  and  _79
REMARK   36  A    between atoms: _79  and  _80
REMARK   37  A    between atoms: _79  and  _82
REMARK   38  A    between atoms: _82  and  _83
REMARK   39  A    between atoms: _83  and  _84
REMARK   40  A    between atoms: _86  and  _88
REMARK   41  A    between atoms: _88  and  _89
REMARK   42  A    between atoms: _88  and  _91
REMARK   43  A    between atoms: _91  and  _92
REMARK   44  A    between atoms: _92  and  _93
REMARK   45  A    between atoms: _93  and  _94
REMARK   46  A    between atoms: _94  and  _95
REMARK   47  A    between atoms: _99  and  _101
REMARK   48  A    between atoms: _101  and  _102
REMARK   49  A    between atoms: _101  and  _104
REMARK   50  A    between atoms: _104  and  _105
REMARK   51  A    between atoms: _111  and  _113
REMARK   52  A    between atoms: _113  and  _114
REMARK   53  A    between atoms: _113  and  _116
REMARK   54  A    between atoms: _116  and  _117
REMARK   55  A    between atoms: _120  and  _122
REMARK   56  A    between atoms: _122  and  _123
REMARK   57  A    between atoms: _122  and  _125
REMARK   58  A    between atoms: _125  and  _126
REMARK   59  A    between atoms: _131  and  _132
REMARK   60  A    between atoms: _134  and  _136
REMARK   61  A    between atoms: _136  and  _137
REMARK   62  A    between atoms: _136  and  _139
REMARK   63  A    between atoms: _141  and  _143
REMARK   64  A    between atoms: _143  and  _144
REMARK   65  A    between atoms: _143  and  _146
REMARK   66  A    between atoms: _146  and  _147
REMARK   67  A    between atoms: _150  and  _152
REMARK   68  A    between atoms: _152  and  _153
REMARK   69  A    between atoms: _152  and  _155
REMARK   70  A    between atoms: _155  and  _156
REMARK   71  A    between atoms: _159  and  _161
REMARK   72  A    between atoms: _161  and  _162
REMARK   73  A    between atoms: _161  and  _164
REMARK   74  A    between atoms: _164  and  _165
REMARK   75  A    between atoms: _170  and  _171
REMARK   76  A    between atoms: _173  and  _175
REMARK   77  A    between atoms: _175  and  _176
REMARK   78  A    between atoms: _175  and  _178
REMARK   79  A    between atoms: _178  and  _179
REMARK   80  A    between atoms: _182  and  _184
REMARK   81  A    between atoms: _184  and  _185
REMARK   82  A    between atoms: _184  and  _187
REMARK   83  A    between atoms: _187  and  _188
REMARK   84  A    between atoms: _188  and  _189
REMARK   85  A    between atoms: _189  and  _190
REMARK   86  A    between atoms: _199  and  _201
REMARK   87  A    between atoms: _201  and  _202
REMARK   88  A    between atoms: _201  and  _204
REMARK   89  A    between atoms: _204  and  _205
REMARK   90  A    between atoms: _207  and  _209
REMARK   91  A    between atoms: _209  and  _210
REMARK   92  A    between atoms: _213  and  _215
REMARK   93  A    between atoms: _215  and  _216
REMARK   94  A    between atoms: _215  and  _218
REMARK   95  A    between atoms: _218  and  _219
REMARK   96  A    between atoms: _224  and  _225
REMARK   97  A    between atoms: _227  and  _229
REMARK   98  A    between atoms: _229  and  _230
REMARK   99  A    between atoms: _229  and  _232
REMARK  100  A    between atoms: _232  and  _233
REMARK  101  A    between atoms: _233  and  _234
REMARK  102  A    between atoms: _237  and  _239
REMARK  103  A    between atoms: _239  and  _240
REMARK  104  A    between atoms: _239  and  _242
REMARK  105  A    between atoms: _242  and  _243
REMARK  106  A    between atoms: _249  and  _251
REMARK  107  A    between atoms: _251  and  _252
REMARK  108  A    between atoms: _251  and  _254
REMARK  109  A    between atoms: _254  and  _255
REMARK  110  A    between atoms: _260  and  _261
REMARK  111  A    between atoms: _263  and  _265
REMARK  112  A    between atoms: _265  and  _266
REMARK  113  A    between atoms: _265  and  _268
REMARK  114  A    between atoms: _268  and  _269
REMARK  115  A    between atoms: _274  and  _276
REMARK  116  A    between atoms: _276  and  _277
REMARK  117  A    between atoms: _276  and  _279
REMARK  118  A    between atoms: _279  and  _280
REMARK  119  A    between atoms: _285  and  _287
REMARK  120  A    between atoms: _287  and  _288
REMARK  121  A    between atoms: _287  and  _290
REMARK  122  A    between atoms: _290  and  _291
REMARK  123  A    between atoms: _291  and  _292
REMARK  124  A    between atoms: _294  and  _296
REMARK  125  A    between atoms: _296  and  _297
REMARK  126  A    between atoms: _296  and  _299
REMARK  127  A    between atoms: _299  and  _300
REMARK  128  A    between atoms: _303  and  _305
REMARK  129  A    between atoms: _305  and  _306
REMARK  130  A    between atoms: _305  and  _308
REMARK  131  A    between atoms: _308  and  _309
REMARK  132  A    between atoms: _309  and  _310
REMARK  133  A    between atoms: _310  and  _311
REMARK  134  A    between atoms: _311  and  _312
REMARK  135  A    between atoms: _316  and  _318
REMARK  136  A    between atoms: _318  and  _319
REMARK  137  A    between atoms: _318  and  _321
REMARK  138  A    between atoms: _321  and  _322
REMARK  139  A    between atoms: _324  and  _326
REMARK  140  A    between atoms: _326  and  _327
REMARK  141  A    between atoms: _326  and  _329
REMARK  142  A    between atoms: _329  and  _330
REMARK  143  A    between atoms: _335  and  _337
REMARK  144  A    between atoms: _337  and  _338
REMARK  145  A    between atoms: _337  and  _340
REMARK  146  A    between atoms: _340  and  _341
REMARK  147  A    between atoms: _341  and  _342
REMARK  148  A    between atoms: _347  and  _349
REMARK  149  A    between atoms: _349  and  _350
REMARK  150  A    between atoms: _349  and  _352
REMARK  151  A    between atoms: _352  and  _353
REMARK  152  A    between atoms: _358  and  _360
REMARK  153  A    between atoms: _360  and  _361
REMARK  154  A    between atoms: _360  and  _363
REMARK  155  A    between atoms: _363  and  _364
REMARK  156  A    between atoms: _367  and  _369
REMARK  157  A    between atoms: _369  and  _370
REMARK  158  A    between atoms: _369  and  _372
REMARK  159  A    between atoms: _374  and  _376
REMARK  160  A    between atoms: _376  and  _377
REMARK  161  A    between atoms: _379  and  _381
REMARK  162  A    between atoms: _381  and  _382
REMARK  163  A    between atoms: _381  and  _384
REMARK  164  A    between atoms: _384  and  _385
REMARK  165  A    between atoms: _385  and  _386
REMARK  166  A    between atoms: _391  and  _393
REMARK  167  A    between atoms: _393  and  _394
REMARK  168  A    between atoms: _393  and  _396
REMARK  169  A    between atoms: _399  and  _401
REMARK  170  A    between atoms: _401  and  _402
REMARK  171  A    between atoms: _401  and  _404
REMARK  172  A    between atoms: _407  and  _409
REMARK  173  A    between atoms: _409  and  _410
REMARK  174  A    between atoms: _409  and  _412
REMARK  175  A    between atoms: _412  and  _413
REMARK  176  A    between atoms: _415  and  _417
REMARK  177  A    between atoms: _417  and  _418
REMARK  178  A    between atoms: _420  and  _422
REMARK  179  A    between atoms: _422  and  _423
REMARK  180  A    between atoms: _422  and  _425
REMARK  181  A    between atoms: _425  and  _426
REMARK  182  A    between atoms: _431  and  _432
REMARK  183  A    between atoms: _434  and  _436
REMARK  184  A    between atoms: _436  and  _437
REMARK  185  A    between atoms: _436  and  _439
REMARK  186  A    between atoms: _439  and  _440
REMARK  187  A    between atoms: _440  and  _441
REMARK  188  A    between atoms: _441  and  _442
REMARK  189  A    between atoms: _451  and  _453
REMARK  190  A    between atoms: _453  and  _454
REMARK  191  A    between atoms: _453  and  _456
REMARK  192  A    between atoms: _456  and  _457
REMARK  193  A    between atoms: _457  and  _458
REMARK  194  A    between atoms: _460  and  _462
REMARK  195  A    between atoms: _462  and  _463
REMARK  196  A    between atoms: _462  and  _465
REMARK  197  A    between atoms: _465  and  _466
REMARK  198  A    between atoms: _469  and  _471
REMARK  199  A    between atoms: _471  and  _472
REMARK  200  A    between atoms: _471  and  _474
REMARK  201  A    between atoms: _477  and  _479
REMARK  202  A    between atoms: _479  and  _480
REMARK  203  A    between atoms: _479  and  _482
REMARK  204  A    between atoms: _482  and  _483
REMARK  205  A    between atoms: _486  and  _488
REMARK  206  A    between atoms: _488  and  _489
REMARK  207  A    between atoms: _488  and  _491
REMARK  208  A    between atoms: _491  and  _492
REMARK  209  A    between atoms: _492  and  _493
REMARK  210  A    between atoms: _496  and  _498
REMARK  211  A    between atoms: _498  and  _499
REMARK  212  A    between atoms: _498  and  _501
REMARK  213  A    between atoms: _501  and  _502
REMARK  214  A    between atoms: _505  and  _507
REMARK  215  A    between atoms: _507  and  _508
REMARK  216  A    between atoms: _507  and  _510
REMARK  217  A    between atoms: _510  and  _511
REMARK  218  A    between atoms: _511  and  _512
REMARK  219  A    between atoms: _517  and  _519
REMARK  220  A    between atoms: _519  and  _520
REMARK  221  A    between atoms: _522  and  _524
REMARK  222  A    between atoms: _524  and  _525
REMARK  223  A    between atoms: _524  and  _527
REMARK  224  A    between atoms: _527  and  _528
REMARK  225  A    between atoms: _531  and  _533
REMARK  226  A    between atoms: _533  and  _534
REMARK  227  A    between atoms: _533  and  _536
REMARK  228  A    between atoms: _539  and  _541
REMARK  229  A    between atoms: _541  and  _542
REMARK  230  A    between atoms: _541  and  _544
REMARK  231  A    between atoms: _546  and  _548
REMARK  232  A    between atoms: _548  and  _549
REMARK  233  A    between atoms: _548  and  _551
REMARK  234  A    between atoms: _551  and  _552
REMARK  235  A    between atoms: _555  and  _557
REMARK  236  A    between atoms: _557  and  _558
REMARK  237  A    between atoms: _557  and  _560
REMARK  238  A    between atoms: _560  and  _561
REMARK  239  A    between atoms: _561  and  _562
REMARK  240  A    between atoms: _564  and  _566
REMARK  241  A    between atoms: _566  and  _567
REMARK  242  A    between atoms: _566  and  _569
REMARK  243  A    between atoms: _571  and  _573
REMARK  244  A    between atoms: _573  and  _574
REMARK  245  A    between atoms: _573  and  _576
REMARK  246  A    between atoms: _579  and  _581
REMARK  247  A    between atoms: _581  and  _582
REMARK  248  A    between atoms: _581  and  _584
REMARK  249  A    between atoms: _584  and  _585
REMARK  250  A    between atoms: _590  and  _592
REMARK  251  A    between atoms: _592  and  _593
REMARK  252  A    between atoms: _592  and  _595
REMARK  253  A    between atoms: _595  and  _596
REMARK  254  A    between atoms: _601  and  _602
REMARK                            x       y       z     vdW  Elec       q    Type
REMARK                         _______ _______ _______ _____ _____    ______ ____
ROOT
ATOM      1  C   SER A   5      18.484   3.415  33.444  0.00  0.00    +0.243 C 
ATOM      2  O   SER A   5      19.260   2.463  33.300  0.00  0.00    -0.273 OA
ATOM      3  N   HIS A   6      18.013   4.132  32.427  0.00  0.00    -0.297 N 
ATOM      4  H   HIS A   6      17.332   4.896  32.611  0.00  0.00    +0.150 HD
ENDROOT
BRANCH   3   5
ATOM      5  CA  HIS A   6      18.436   3.863  31.065  0.00  0.00    +0.155 C 
BRANCH   5   6
ATOM      6  C   HIS A   6      19.907   4.181  30.918  0.00  0.00    +0.241 C 
ATOM      7  N   GLN A   7      20.380   5.220  31.600  0.00  0.00    -0.297 N 
ATOM      8  H   GLN A   7      19.739   5.793  32.185  0.00  0.00    +0.150 HD
ATOM      9  O   HIS A   6      20.620   3.483  30.226  0.00  0.00    -0.273 OA
BRANCH   7  10
ATOM     10  CA  GLN A   7      21.788   5.553  31.528  0.00  0.00    +0.149 C 
BRANCH  10  11
ATOM     11  C   GLN A   7      22.615   4.461  32.207  0.00  0.00    +0.241 C 
ATOM     12  N   ASN A   8      22.121   3.956  33.337  0.00  0.00    -0.297 N 
ATOM     13  H   ASN A   8      21.268   4.386  33.748  0.00  0.00    +0.150 HD
ATOM     14  O   GLN A   7      23.664   4.068  31.699  0.00  0.00    -0.273 OA
BRANCH  12  15
ATOM     15  CA  ASN A   8      22.737   2.817  34.019  0.00  0.00    +0.158 C 
BRANCH  15  16
ATOM     16  C   ASN A   8      22.806   1.605  33.086  0.00  0.00    +0.241 C 
ATOM     17  O   ASN A   8      23.847   0.951  32.981  0.00  0.00    -0.273 OA
ATOM     18  N   LEU A   9      21.699   1.308  32.399  0.00  0.00    -0.297 N 
ATOM     19  H   LEU A   9      20.847   1.891  32.520  0.00  0.00    +0.150 HD
BRANCH  18  20
ATOM     20  CA  LEU A   9      21.673   0.168  31.476  0.00  0.00    +0.149 C 
BRANCH  20  21
ATOM     21  C   LEU A   9      22.753   0.277  30.419  0.00  0.00    +0.241 C 
ATOM     22  O   LEU A   9      23.440  -0.695  30.137  0.00  0.00    -0.273 OA
ATOM     23  N   CYS A  10      22.890   1.455  29.821  0.00  0.00    -0.297 N 
ATOM     24  H   CYS A  10      22.300   2.255  30.127  0.00  0.00    +0.150 HD
BRANCH  23  25
ATOM     25  CA  CYS A  10      23.850   1.646  28.747  0.00  0.00    +0.149 C 
BRANCH  25  26
ATOM     26  C   CYS A  10      25.301   1.526  29.207  0.00  0.00    +0.228 C 
ATOM     27  O   CYS A  10      26.185   1.270  28.399  0.00  0.00    -0.286 OA
ENDBRANCH  25  26
BRANCH  25  28
ATOM     28  CB  CYS A  10      23.607   2.984  28.059  0.00  0.00    +0.096 C 
ATOM     29  SG  CYS A  10      22.086   2.974  27.103  0.00  0.00    -0.080 S 
ENDBRANCH  25  28
ENDBRANCH  23  25
ENDBRANCH  20  21
BRANCH  20  30
ATOM     30  CB  LEU A   9      20.311   0.049  30.790  0.00  0.00    +0.029 C 
BRANCH  30  31
ATOM     31  CG  LEU A   9      20.146  -0.981  29.663  0.00  0.00    +0.002 C 
ATOM     32  CD2 LEU A   9      20.446  -2.389  30.150  0.00  0.00    +0.000 C 
ATOM     33  CD1 LEU A   9      18.728  -0.889  29.132  0.00  0.00    +0.000 C 
ENDBRANCH  30  31
ENDBRANCH  20  30
ENDBRANCH  18  20
ENDBRANCH  15  16
BRANCH  15  34
ATOM     34  CB  ASN A   8      21.929   2.475  35.278  0.00  0.00    +0.114 C 
BRANCH  34  35
ATOM     35  CG  ASN A   8      22.701   1.622  36.275  0.00  0.00    +0.222 C 
ATOM     36  ND2 ASN A   8      21.990   0.740  36.973  0.00  0.00    -0.329 N 
ATOM     37 HD21 ASN A   8      22.457   0.143  37.686  0.00  0.00    +0.145 HD
ATOM     38 HD22 ASN A   8      20.968   0.647  36.806  0.00  0.00    +0.145 HD
ATOM     39  OD1 ASN A   8      23.909   1.768  36.436  0.00  0.00    -0.275 OA
ENDBRANCH  34  35
ENDBRANCH  15  34
ENDBRANCH  12  15
ENDBRANCH  10  11
BRANCH  10  40
ATOM     40  CB  GLN A   7      22.056   6.932  32.145  0.00  0.00    +0.039 C 
BRANCH  40  41
ATOM     41  CG  GLN A   7      23.483   7.427  31.930  0.00  0.00    +0.087 C 
BRANCH  41  42
ATOM     42  CD  GLN A   7      23.910   7.371  30.473  0.00  0.00    +0.219 C 
ATOM     43  NE2 GLN A   7      25.039   6.721  30.211  0.00  0.00    -0.329 N 
ATOM     44 HE21 GLN A   7      25.586   6.296  30.986  0.00  0.00    +0.145 HD
ATOM     45 HE22 GLN A   7      25.375   6.637  29.230  0.00  0.00    +0.145 HD
ATOM     46  OE1 GLN A   7      23.225   7.892  29.593  0.00  0.00    -0.275 OA
ENDBRANCH  41  42
ENDBRANCH  40  41
ENDBRANCH  10  40
ENDBRANCH   7  10
ENDBRANCH   5   6
BRANCH   5  47
ATOM     47  CB  HIS A   6      17.615   4.666  30.076  0.00  0.00    +0.076 C 
BRANCH  47  48
ATOM     48  CG  HIS A   6      18.044   4.485  28.658  0.00  0.00    +0.082 A 
ATOM     49  ND1 HIS A   6      19.064   5.215  28.093  0.00  0.00    -0.227 NA
ATOM     50  CE1 HIS A   6      19.215   4.857  26.832  0.00  0.00    +0.199 A 
ATOM     51  NE2 HIS A   6      18.338   3.909  26.564  0.00  0.00    -0.221 NA
ATOM     52  CD2 HIS A   6      17.607   3.643  27.695  0.00  0.00    +0.115 A 
ENDBRANCH  47  48
ENDBRANCH   5  47
ENDBRANCH   3   5
BRANCH   1  53
ATOM     53  CA  SER A   5      18.024   3.831  34.831  0.00  0.00    +0.178 C 
BRANCH  53  55
ATOM     54  C   LYS A   4      19.011   6.025  34.860  0.00  0.00    +0.241 C 
ATOM     55  N   SER A   5      17.923   5.265  34.900  0.00  0.00    -0.295 N 
ATOM     56  H   SER A   5      16.987   5.711  34.982  0.00  0.00    +0.150 HD
ATOM     57  O   LYS A   4      20.133   5.564  34.677  0.00  0.00    -0.273 OA
BRANCH  54  58
ATOM     58  CA  LYS A   4      18.791   7.524  35.007  0.00  0.00    +0.149 C 
BRANCH  58  60
ATOM     59  C   THR A   3      17.446   7.810  32.990  0.00  0.00    +0.243 C 
ATOM     60  N   LYS A   4      17.570   7.911  34.308  0.00  0.00    -0.297 N 
ATOM     61  H   LYS A   4      16.770   8.278  34.861  0.00  0.00    +0.150 HD
ATOM     62  O   THR A   3      18.346   7.363  32.261  0.00  0.00    -0.273 OA
BRANCH  59  63
ATOM     63  CA  THR A   3      16.079   8.220  32.410  0.00  0.00    +0.176 C 
BRANCH  63  65
ATOM     64  C   MET A   2      14.808   6.333  33.247  0.00  0.00    +0.241 C 
ATOM     65  N   THR A   3      15.036   7.641  33.249  0.00  0.00    -0.295 N 
ATOM     66  H   THR A   3      14.463   8.261  33.857  0.00  0.00    +0.150 HD
ATOM     67  O   MET A   2      15.424   5.558  32.525  0.00  0.00    -0.273 OA
BRANCH  64  68
ATOM     68  CA  MET A   2      13.768   5.807  34.244  0.00  0.00    +0.149 C 
BRANCH  68  71
ATOM     69  C   ASN A   1      14.540   6.794  36.286  0.00  0.00    +0.239 C 
ATOM     70  O   ASN A   1      15.591   6.185  36.201  0.00  0.00    -0.274 OA
ATOM     71  N   MET A   2      13.599   6.722  35.354  0.00  0.00    -0.297 N 
ATOM     72  H   MET A   2      12.748   7.317  35.420  0.00  0.00    +0.150 HD
BRANCH  69  73
ATOM     73  CA  ASN A   1      14.290   7.722  37.460  0.00  0.00    +0.154 C 
BRANCH  73  74
ATOM     74  N   ASN A   1      13.567   8.889  37.019  0.00  0.00    -0.238 NA
ATOM     75  H   ASN A   1      12.615   9.073  37.394  0.00  0.00    +0.142 HD
ENDBRANCH  73  74
BRANCH  73  76
ATOM     76  CB  ASN A   1      13.535   7.007  38.579  0.00  0.00    +0.111 C 
BRANCH  76  77
ATOM     77  CG  ASN A   1      13.481   7.827  39.853  0.00  0.00    +0.221 C 
ATOM     78  ND2 ASN A   1      12.587   7.453  40.764  0.00  0.00    -0.329 N 
ATOM     79 HD21 ASN A   1      12.502   7.980  41.656  0.00  0.00    +0.145 HD
ATOM     80 HD22 ASN A   1      11.973   6.633  40.584  0.00  0.00    +0.145 HD
ATOM     81  OD1 ASN A   1      14.233   8.791  40.016  0.00  0.00    -0.275 OA
ENDBRANCH  76  77
ENDBRANCH  73  76
ENDBRANCH  69  73
ENDBRANCH  68  71
BRANCH  68  82
ATOM     82  CB  MET A   2      12.430   5.485  33.575  0.00  0.00    +0.041 C 
BRANCH  82  83
ATOM     83  CG  MET A   2      11.581   4.496  34.389  0.00  0.00    +0.060 C 
BRANCH  83  84
ATOM     84  SD  MET A   2      12.374   2.894  34.697  0.00  0.00    -0.139 S 
ATOM     85  CE  MET A   2      12.054   2.113  33.111  0.00  0.00    +0.069 C 
ENDBRANCH  83  84
ENDBRANCH  82  83
ENDBRANCH  68  82
ENDBRANCH  64  68
ENDBRANCH  63  65
BRANCH  63  86
ATOM     86  CB  THR A   3      15.920   9.762  32.325  0.00  0.00    +0.137 C 
ATOM     87  CG2 THR A   3      17.041  10.397  31.519  0.00  0.00    +0.034 C 
BRANCH  86  88
ATOM     88  OG1 THR A   3      14.668  10.078  31.700  0.00  0.00    -0.382 OA
ATOM     89  HG1 THR A   3      14.649   9.692  30.788  0.00  0.00    +0.210 HD
ENDBRANCH  86  88
ENDBRANCH  63  86
ENDBRANCH  59  63
ENDBRANCH  58  60
BRANCH  58  90
ATOM     90  CB  LYS A   4      18.713   7.906  36.485  0.00  0.00    +0.029 C 
BRANCH  90  91
ATOM     91  CG  LYS A   4      18.629   9.402  36.745  0.00  0.00    +0.000 C 
BRANCH  91  92
ATOM     92  CD  LYS A   4      18.819   9.708  38.223  0.00  0.00    -0.024 C 
BRANCH  92  93
ATOM     93  CE  LYS A   4      18.705  11.196  38.515  0.00  0.00    -0.086 C 
BRANCH  93  94
ATOM     94  NZ  LYS A   4      17.297  11.672  38.460  0.00  0.00    +0.380 N 
ATOM     95  HZ1 LYS A   4      16.731  11.159  39.166  0.00  0.00    -0.089 HD
ATOM     96  HZ2 LYS A   4      17.269  12.691  38.665  0.00  0.00    -0.089 HD
ATOM     97  HZ3 LYS A   4      16.910  11.498  37.510  0.00  0.00    -0.089 HD
ENDBRANCH  93  94
ENDBRANCH  92  93
ENDBRANCH  91  92
ENDBRANCH  90  91
ENDBRANCH  58  90
ENDBRANCH  54  58
ENDBRANCH  53  55
BRANCH  53  98
ATOM     98  CB  SER A   5      16.685   3.193  35.184  0.00  0.00    +0.166 C 
BRANCH  98  99
ATOM     99  OG  SER A   5      16.833   1.791  35.341  0.00  0.00    -0.380 OA
ATOM    100  H   SER A   5      17.480   1.608  36.068  0.00  0.00    +0.211 HD
ENDBRANCH  98  99
ENDBRANCH  53  98
ENDBRANCH   1  53
TORSDOF 44
REMARK  Name = ../refined-set-2016/4xt2/4xt2_pocket.pdb
REMARK  254 active torsions:
REMARK  status: ('A' for Active; 'I' for Inactive)
REMARK    1  A    between atoms: _1  and  _3
REMARK    2  A    between atoms: _3  and  _4
REMARK    3  A    between atoms: _3  and  _6
REMARK    4  A    between atoms: _6  and  _7
REMARK    5  A    between atoms: _13  and  _15
REMARK    6  A    between atoms: _15  and  _16
REMARK    7  A    between atoms: _15  and  _18
REMARK    8  A    between atoms: _18  and  _19
REMARK    9  A    between atoms: _22  and  _24
REMARK   10  A    between atoms: _24  and  _25
REMARK   11  A    between atoms: _24  and  _27
REMARK   12  A    between atoms: _27  and  _28
REMARK   13  A    between atoms: _30  and  _32
REMARK   14  A    between atoms: _32  and  _33
REMARK   15  A    between atoms: _32  and  _35
REMARK   16  A    between atoms: _35  and  _36
REMARK   17  A    between atoms: _36  and  _37
REMARK   18  A    between atoms: _40  and  _42
REMARK   19  A    between atoms: _42  and  _43
REMARK   20  A    between atoms: _42  and  _45
REMARK   21  A    between atoms: _45  and  _46
REMARK   22  A    between atoms: _51  and  _53
REMARK   23  A    between atoms: _53  and  _54
REMARK   24  A    between atoms: _53  and  _56
REMARK   25  A    between atoms: _56  and  _57
REMARK   26  A    between atoms: _59  and  _61
REMARK   27  A    between atoms: _61  and  _62
REMARK   28  A    between atoms: _61  and  _64
REMARK   29  A    between atoms: _64  and  _65
REMARK   30  A    between atoms: _65  and  _66
REMARK   31  A    between atoms: _68  and  _70
REMARK   32  A    between atoms: _70  and  _71
REMARK   33  A    between atoms: _70  and  _73
REMARK   34  A    between atoms: _73  and  _74
REMARK   35  A    between atoms: _77  and  _79
REMARK   36  A    between atoms: _79  and  _80
REMARK   37  A    between atoms: _79  and  _82
REMARK   38  A    between atoms: _82  and  _83
REMARK   39  A    between atoms: _83  and  _84
REMARK   40  A    between atoms: _86  and  _88
REMARK   41  A    between atoms: _88  and  _89
REMARK   42  A    between atoms: _88  and  _91
REMARK   43  A    between atoms: _91  and  _92
REMARK   44  A    between atoms: _92  and  _93
REMARK   45  A    between atoms: _93  and  _94
REMARK   46  A    between atoms: _94  and  _95
REMARK   47  A    between atoms: _99  and  _101
REMARK   48  A    between atoms: _101  and  _102
REMARK   49  A    between atoms: _101  and  _104
REMARK   50  A    between atoms: _104  and  _105
REMARK   51  A    between atoms: _111  and  _113
REMARK   52  A    between atoms: _113  and  _114
REMARK   53  A    between atoms: _113  and  _116
REMARK   54  A    between atoms: _116  and  _117
REMARK   55  A    between atoms: _120  and  _122
REMARK   56  A    between atoms: _122  and  _123
REMARK   57  A    between atoms: _122  and  _125
REMARK   58  A    between atoms: _125  and  _126
REMARK   59  A    between atoms: _131  and  _132
REMARK   60  A    between atoms: _134  and  _136
REMARK   61  A    between atoms: _136  and  _137
REMARK   62  A    between atoms: _136  and  _139
REMARK   63  A    between atoms: _141  and  _143
REMARK   64  A    between atoms: _143  and  _144
REMARK   65  A    between atoms: _143  and  _146
REMARK   66  A    between atoms: _146  and  _147
REMARK   67  A    between atoms: _150  and  _152
REMARK   68  A    between atoms: _152  and  _153
REMARK   69  A    between atoms: _152  and  _155
REMARK   70  A    between atoms: _155  and  _156
REMARK   71  A    between atoms: _159  and  _161
REMARK   72  A    between atoms: _161  and  _162
REMARK   73  A    between atoms: _161  and  _164
REMARK   74  A    between atoms: _164  and  _165
REMARK   75  A    between atoms: _170  and  _171
REMARK   76  A    between atoms: _173  and  _175
REMARK   77  A    between atoms: _175  and  _176
REMARK   78  A    between atoms: _175  and  _178
REMARK   79  A    between atoms: _178  and  _179
REMARK   80  A    between atoms: _182  and  _184
REMARK   81  A    between atoms: _184  and  _185
REMARK   82  A    between atoms: _184  and  _187
REMARK   83  A    between atoms: _187  and  _188
REMARK   84  A    between atoms: _188  and  _189
REMARK   85  A    between atoms: _189  and  _190
REMARK   86  A    between atoms: _199  and  _201
REMARK   87  A    between atoms: _201  and  _202
REMARK   88  A    between atoms: _201  and  _204
REMARK   89  A    between atoms: _204  and  _205
REMARK   90  A    between atoms: _207  and  _209
REMARK   91  A    between atoms: _209  and  _210
REMARK   92  A    between atoms: _213  and  _215
REMARK   93  A    between atoms: _215  and  _216
REMARK   94  A    between atoms: _215  and  _218
REMARK   95  A    between atoms: _218  and  _219
REMARK   96  A    between atoms: _224  and  _225
REMARK   97  A    between atoms: _227  and  _229
REMARK   98  A    between atoms: _229  and  _230
REMARK   99  A    between atoms: _229  and  _232
REMARK  100  A    between atoms: _232  and  _233
REMARK  101  A    between atoms: _233  and  _234
REMARK  102  A    between atoms: _237  and  _239
REMARK  103  A    between atoms: _239  and  _240
REMARK  104  A    between atoms: _239  and  _242
REMARK  105  A    between atoms: _242  and  _243
REMARK  106  A    between atoms: _249  and  _251
REMARK  107  A    between atoms: _251  and  _252
REMARK  108  A    between atoms: _251  and  _254
REMARK  109  A    between atoms: _254  and  _255
REMARK  110  A    between atoms: _260  and  _261
REMARK  111  A    between atoms: _263  and  _265
REMARK  112  A    between atoms: _265  and  _266
REMARK  113  A    between atoms: _265  and  _268
REMARK  114  A    between atoms: _268  and  _269
REMARK  115  A    between atoms: _274  and  _276
REMARK  116  A    between atoms: _276  and  _277
REMARK  117  A    between atoms: _276  and  _279
REMARK  118  A    between atoms: _279  and  _280
REMARK  119  A    between atoms: _285  and  _287
REMARK  120  A    between atoms: _287  and  _288
REMARK  121  A    between atoms: _287  and  _290
REMARK  122  A    between atoms: _290  and  _291
REMARK  123  A    between atoms: _291  and  _292
REMARK  124  A    between atoms: _294  and  _296
REMARK  125  A    between atoms: _296  and  _297
REMARK  126  A    between atoms: _296  and  _299
REMARK  127  A    between atoms: _299  and  _300
REMARK  128  A    between atoms: _303  and  _305
REMARK  129  A    between atoms: _305  and  _306
REMARK  130  A    between atoms: _305  and  _308
REMARK  131  A    between atoms: _308  and  _309
REMARK  132  A    between atoms: _309  and  _310
REMARK  133  A    between atoms: _310  and  _311
REMARK  134  A    between atoms: _311  and  _312
REMARK  135  A    between atoms: _316  and  _318
REMARK  136  A    between atoms: _318  and  _319
REMARK  137  A    between atoms: _318  and  _321
REMARK  138  A    between atoms: _321  and  _322
REMARK  139  A    between atoms: _324  and  _326
REMARK  140  A    between atoms: _326  and  _327
REMARK  141  A    between atoms: _326  and  _329
REMARK  142  A    between atoms: _329  and  _330
REMARK  143  A    between atoms: _335  and  _337
REMARK  144  A    between atoms: _337  and  _338
REMARK  145  A    between atoms: _337  and  _340
REMARK  146  A    between atoms: _340  and  _341
REMARK  147  A    between atoms: _341  and  _342
REMARK  148  A    between atoms: _347  and  _349
REMARK  149  A    between atoms: _349  and  _350
REMARK  150  A    between atoms: _349  and  _352
REMARK  151  A    between atoms: _352  and  _353
REMARK  152  A    between atoms: _358  and  _360
REMARK  153  A    between atoms: _360  and  _361
REMARK  154  A    between atoms: _360  and  _363
REMARK  155  A    between atoms: _363  and  _364
REMARK  156  A    between atoms: _367  and  _369
REMARK  157  A    between atoms: _369  and  _370
REMARK  158  A    between atoms: _369  and  _372
REMARK  159  A    between atoms: _374  and  _376
REMARK  160  A    between atoms: _376  and  _377
REMARK  161  A    between atoms: _379  and  _381
REMARK  162  A    between atoms: _381  and  _382
REMARK  163  A    between atoms: _381  and  _384
REMARK  164  A    between atoms: _384  and  _385
REMARK  165  A    between atoms: _385  and  _386
REMARK  166  A    between atoms: _391  and  _393
REMARK  167  A    between atoms: _393  and  _394
REMARK  168  A    between atoms: _393  and  _396
REMARK  169  A    between atoms: _399  and  _401
REMARK  170  A    between atoms: _401  and  _402
REMARK  171  A    between atoms: _401  and  _404
REMARK  172  A    between atoms: _407  and  _409
REMARK  173  A    between atoms: _409  and  _410
REMARK  174  A    between atoms: _409  and  _412
REMARK  175  A    between atoms: _412  and  _413
REMARK  176  A    between atoms: _415  and  _417
REMARK  177  A    between atoms: _417  and  _418
REMARK  178  A    between atoms: _420  and  _422
REMARK  179  A    between atoms: _422  and  _423
REMARK  180  A    between atoms: _422  and  _425
REMARK  181  A    between atoms: _425  and  _426
REMARK  182  A    between atoms: _431  and  _432
REMARK  183  A    between atoms: _434  and  _436
REMARK  184  A    between atoms: _436  and  _437
REMARK  185  A    between atoms: _436  and  _439
REMARK  186  A    between atoms: _439  and  _440
REMARK  187  A    between atoms: _440  and  _441
REMARK  188  A    between atoms: _441  and  _442
REMARK  189  A    between atoms: _451  and  _453
REMARK  190  A    between atoms: _453  and  _454
REMARK  191  A    between atoms: _453  and  _456
REMARK  192  A    between atoms: _456  and  _457
REMARK  193  A    between atoms: _457  and  _458
REMARK  194  A    between atoms: _460  and  _462
REMARK  195  A    between atoms: _462  and  _463
REMARK  196  A    between atoms: _462  and  _465
REMARK  197  A    between atoms: _465  and  _466
REMARK  198  A    between atoms: _469  and  _471
REMARK  199  A    between atoms: _471  and  _472
REMARK  200  A    between atoms: _471  and  _474
REMARK  201  A    between atoms: _477  and  _479
REMARK  202  A    between atoms: _479  and  _480
REMARK  203  A    between atoms: _479  and  _482
REMARK  204  A    between atoms: _482  and  _483
REMARK  205  A    between atoms: _486  and  _488
REMARK  206  A    between atoms: _488  and  _489
REMARK  207  A    between atoms: _488  and  _491
REMARK  208  A    between atoms: _491  and  _492
REMARK  209  A    between atoms: _492  and  _493
REMARK  210  A    between atoms: _496  and  _498
REMARK  211  A    between atoms: _498  and  _499
REMARK  212  A    between atoms: _498  and  _501
REMARK  213  A    between atoms: _501  and  _502
REMARK  214  A    between atoms: _505  and  _507
REMARK  215  A    between atoms: _507  and  _508
REMARK  216  A    between atoms: _507  and  _510
REMARK  217  A    between atoms: _510  and  _511
REMARK  218  A    between atoms: _511  and  _512
REMARK  219  A    between atoms: _517  and  _519
REMARK  220  A    between atoms: _519  and  _520
REMARK  221  A    between atoms: _522  and  _524
REMARK  222  A    between atoms: _524  and  _525
REMARK  223  A    between atoms: _524  and  _527
REMARK  224  A    between atoms: _527  and  _528
REMARK  225  A    between atoms: _531  and  _533
REMARK  226  A    between atoms: _533  and  _534
REMARK  227  A    between atoms: _533  and  _536
REMARK  228  A    between atoms: _539  and  _541
REMARK  229  A    between atoms: _541  and  _542
REMARK  230  A    between atoms: _541  and  _544
REMARK  231  A    between atoms: _546  and  _548
REMARK  232  A    between atoms: _548  and  _549
REMARK  233  A    between atoms: _548  and  _551
REMARK  234  A    between atoms: _551  and  _552
REMARK  235  A    between atoms: _555  and  _557
REMARK  236  A    between atoms: _557  and  _558
REMARK  237  A    between atoms: _557  and  _560
REMARK  238  A    between atoms: _560  and  _561
REMARK  239  A    between atoms: _561  and  _562
REMARK  240  A    between atoms: _564  and  _566
REMARK  241  A    between atoms: _566  and  _567
REMARK  242  A    between atoms: _566  and  _569
REMARK  243  A    between atoms: _571  and  _573
REMARK  244  A    between atoms: _573  and  _574
REMARK  245  A    between atoms: _573  and  _576
REMARK  246  A    between atoms: _579  and  _581
REMARK  247  A    between atoms: _581  and  _582
REMARK  248  A    between atoms: _581  and  _584
REMARK  249  A    between atoms: _584  and  _585
REMARK  250  A    between atoms: _590  and  _592
REMARK  251  A    between atoms: _592  and  _593
REMARK  252  A    between atoms: _592  and  _595
REMARK  253  A    between atoms: _595  and  _596
REMARK  254  A    between atoms: _601  and  _602
REMARK                            x       y       z     vdW  Elec       q    Type
REMARK                         _______ _______ _______ _____ _____    ______ ____
ROOT
ATOM      1  CA  VAL A   3      20.455  -4.324  34.592  0.00  0.00    +0.149 C 
ENDROOT
BRANCH   1   2
ATOM      2  C   VAL A   3      18.938  -4.332  34.695  0.00  0.00    +0.241 C 
ATOM      3  N   VAL A   4      18.431  -4.471  35.917  0.00  0.00    -0.297 N 
ATOM      4  H   VAL A   4      19.065  -4.672  36.717  0.00  0.00    +0.150 HD
ATOM      5  O   VAL A   3      18.240  -4.213  33.686  0.00  0.00    -0.273 OA
BRANCH   3   6
ATOM      6  CA  VAL A   4      17.003  -4.345  36.147  0.00  0.00    +0.149 C 
BRANCH   6   7
ATOM      7  C   VAL A   4      16.656  -2.861  36.312  0.00  0.00    +0.241 C 
ATOM      8  O   VAL A   4      17.474  -2.076  36.792  0.00  0.00    -0.273 OA
ATOM      9  N   SER A   5      15.440  -2.488  35.935  0.00  0.00    -0.295 N 
ATOM     10  H   SER A   5      14.727  -3.218  35.736  0.00  0.00    +0.150 HD
BRANCH   9  11
ATOM     11  CA  SER A   5      15.075  -1.085  35.792  0.00  0.00    +0.178 C 
BRANCH  11  12
ATOM     12  C   SER A   5      14.755  -0.372  37.094  0.00  0.00    +0.243 C 
ATOM     13  N   GLY A   6      14.329  -1.130  38.107  0.00  0.00    -0.296 N 
ATOM     14  H   GLY A   6      14.531  -2.150  38.107  0.00  0.00    +0.150 HD
ATOM     15  O   SER A   5      14.889   0.854  37.170  0.00  0.00    -0.273 OA
BRANCH  13  16
ATOM     16  CA  GLY A   6      13.590  -0.547  39.203  0.00  0.00    +0.163 C 
BRANCH  16  17
ATOM     17  C   GLY A   6      12.112  -0.523  38.856  0.00  0.00    +0.229 C 
ATOM     18  O   GLY A   6      11.740  -0.566  37.685  0.00  0.00    -0.286 OA
ENDBRANCH  16  17
ENDBRANCH  13  16
ENDBRANCH  11  12
BRANCH  11  19
ATOM     19  CB  SER A   5      13.844  -0.960  34.887  0.00  0.00    +0.166 C 
BRANCH  19  20
ATOM     20  OG  SER A   5      12.700  -1.544  35.493  0.00  0.00    -0.380 OA
ATOM     21  H   SER A   5      12.511  -1.085  36.350  0.00  0.00    +0.211 HD
ENDBRANCH  19  20
ENDBRANCH  11  19
ENDBRANCH   9  11
ENDBRANCH   6   7
BRANCH   6  22
ATOM     22  CB  VAL A   4      16.564  -5.191  37.360  0.00  0.00    +0.027 C 
ATOM     23  CG2 VAL A   4      16.874  -4.502  38.681  0.00  0.00    +0.002 C 
ATOM     24  CG1 VAL A   4      15.087  -5.517  37.268  0.00  0.00    +0.002 C 
ENDBRANCH   6  22
ENDBRANCH   3   6
ENDBRANCH   1   2
BRANCH   1  27
ATOM     25  C   GLN A   2      22.086  -4.890  32.910  0.00  0.00    +0.241 C 
ATOM     26  O   GLN A   2      23.002  -4.786  33.715  0.00  0.00    -0.273 OA
ATOM     27  N   VAL A   3      20.828  -4.640  33.223  0.00  0.00    -0.297 N 
ATOM     28  H   VAL A   3      20.097  -4.669  32.484  0.00  0.00    +0.150 HD
BRANCH  25  29
ATOM     29  CA  GLN A   2      22.348  -5.295  31.475  0.00  0.00    +0.149 C 
BRANCH  29  31
ATOM     30  C   GLY A   1      23.786  -4.396  29.733  0.00  0.00    +0.240 C 
ATOM     31  N   GLN A   2      23.578  -4.679  31.014  0.00  0.00    -0.297 N 
ATOM     32  H   GLN A   2      24.319  -4.452  31.707  0.00  0.00    +0.150 HD
ATOM     33  O   GLY A   1      23.037  -4.774  28.828  0.00  0.00    -0.274 OA
BRANCH  30  34
ATOM     34  CA  GLY A   1      25.034  -3.587  29.418  0.00  0.00    +0.169 C 
BRANCH  34  35
ATOM     35  N   GLY A   1      25.369  -2.636  30.469  0.00  0.00    -0.236 NA
ATOM     36  H   GLY A   1      24.961  -1.680  30.434  0.00  0.00    +0.142 HD
ENDBRANCH  34  35
ENDBRANCH  30  34
ENDBRANCH  29  31
BRANCH  29  37
ATOM     37  CB  GLN A   2      22.411  -6.815  31.354  0.00  0.00    +0.039 C 
BRANCH  37  38
ATOM     38  CG  GLN A   2      23.596  -7.449  32.054  0.00  0.00    +0.087 C 
BRANCH  38  39
ATOM     39  CD  GLN A   2      24.261  -8.523  31.225  0.00  0.00    +0.219 C 
ATOM     40  NE2 GLN A   2      25.521  -8.804  31.531  0.00  0.00    -0.329 N 
ATOM     41 HE21 GLN A   2      25.993  -8.297  32.307  0.00  0.00    +0.145 HD
ATOM     42 HE22 GLN A   2      26.037  -9.531  30.995  0.00  0.00    +0.145 HD
ATOM     43  OE1 GLN A   2      23.655  -9.092  30.317  0.00  0.00    -0.275 OA
ENDBRANCH  38  39
ENDBRANCH  37  38
ENDBRANCH  29  37
ENDBRANCH  25  29
ENDBRANCH   1  27
BRANCH   1  44
ATOM     44  CB  VAL A   3      21.032  -2.946  35.043  0.00  0.00    +0.027 C 
ATOM     45  CG2 VAL A   3      20.942  -2.780  36.565  0.00  0.00    +0.002 C 
ATOM     46  CG1 VAL A   3      20.351  -1.790  34.332  0.00  0.00    +0.002 C 
ENDBRANCH   1  44
TORSDOF 19
REMARK  Name = ../refined-set-2016/4xt2/4xt2_pocket.pdb
REMARK  254 active torsions:
REMARK  status: ('A' for Active; 'I' for Inactive)
REMARK    1  A    between atoms: _1  and  _3
REMARK    2  A    between atoms: _3  and  _4
REMARK    3  A    between atoms: _3  and  _6
REMARK    4  A    between atoms: _6  and  _7
REMARK    5  A    between atoms: _13  and  _15
REMARK    6  A    between atoms: _15  and  _16
REMARK    7  A    between atoms: _15  and  _18
REMARK    8  A    between atoms: _18  and  _19
REMARK    9  A    between atoms: _22  and  _24
REMARK   10  A    between atoms: _24  and  _25
REMARK   11  A    between atoms: _24  and  _27
REMARK   12  A    between atoms: _27  and  _28
REMARK   13  A    between atoms: _30  and  _32
REMARK   14  A    between atoms: _32  and  _33
REMARK   15  A    between atoms: _32  and  _35
REMARK   16  A    between atoms: _35  and  _36
REMARK   17  A    between atoms: _36  and  _37
REMARK   18  A    between atoms: _40  and  _42
REMARK   19  A    between atoms: _42  and  _43
REMARK   20  A    between atoms: _42  and  _45
REMARK   21  A    between atoms: _45  and  _46
REMARK   22  A    between atoms: _51  and  _53
REMARK   23  A    between atoms: _53  and  _54
REMARK   24  A    between atoms: _53  and  _56
REMARK   25  A    between atoms: _56  and  _57
REMARK   26  A    between atoms: _59  and  _61
REMARK   27  A    between atoms: _61  and  _62
REMARK   28  A    between atoms: _61  and  _64
REMARK   29  A    between atoms: _64  and  _65
REMARK   30  A    between atoms: _65  and  _66
REMARK   31  A    between atoms: _68  and  _70
REMARK   32  A    between atoms: _70  and  _71
REMARK   33  A    between atoms: _70  and  _73
REMARK   34  A    between atoms: _73  and  _74
REMARK   35  A    between atoms: _77  and  _79
REMARK   36  A    between atoms: _79  and  _80
REMARK   37  A    between atoms: _79  and  _82
REMARK   38  A    between atoms: _82  and  _83
REMARK   39  A    between atoms: _83  and  _84
REMARK   40  A    between atoms: _86  and  _88
REMARK   41  A    between atoms: _88  and  _89
REMARK   42  A    between atoms: _88  and  _91
REMARK   43  A    between atoms: _91  and  _92
REMARK   44  A    between atoms: _92  and  _93
REMARK   45  A    between atoms: _93  and  _94
REMARK   46  A    between atoms: _94  and  _95
REMARK   47  A    between atoms: _99  and  _101
REMARK   48  A    between atoms: _101  and  _102
REMARK   49  A    between atoms: _101  and  _104
REMARK   50  A    between atoms: _104  and  _105
REMARK   51  A    between atoms: _111  and  _113
REMARK   52  A    between atoms: _113  and  _114
REMARK   53  A    between atoms: _113  and  _116
REMARK   54  A    between atoms: _116  and  _117
REMARK   55  A    between atoms: _120  and  _122
REMARK   56  A    between atoms: _122  and  _123
REMARK   57  A    between atoms: _122  and  _125
REMARK   58  A    between atoms: _125  and  _126
REMARK   59  A    between atoms: _131  and  _132
REMARK   60  A    between atoms: _134  and  _136
REMARK   61  A    between atoms: _136  and  _137
REMARK   62  A    between atoms: _136  and  _139
REMARK   63  A    between atoms: _141  and  _143
REMARK   64  A    between atoms: _143  and  _144
REMARK   65  A    between atoms: _143  and  _146
REMARK   66  A    between atoms: _146  and  _147
REMARK   67  A    between atoms: _150  and  _152
REMARK   68  A    between atoms: _152  and  _153
REMARK   69  A    between atoms: _152  and  _155
REMARK   70  A    between atoms: _155  and  _156
REMARK   71  A    between atoms: _159  and  _161
REMARK   72  A    between atoms: _161  and  _162
REMARK   73  A    between atoms: _161  and  _164
REMARK   74  A    between atoms: _164  and  _165
REMARK   75  A    between atoms: _170  and  _171
REMARK   76  A    between atoms: _173  and  _175
REMARK   77  A    between atoms: _175  and  _176
REMARK   78  A    between atoms: _175  and  _178
REMARK   79  A    between atoms: _178  and  _179
REMARK   80  A    between atoms: _182  and  _184
REMARK   81  A    between atoms: _184  and  _185
REMARK   82  A    between atoms: _184  and  _187
REMARK   83  A    between atoms: _187  and  _188
REMARK   84  A    between atoms: _188  and  _189
REMARK   85  A    between atoms: _189  and  _190
REMARK   86  A    between atoms: _199  and  _201
REMARK   87  A    between atoms: _201  and  _202
REMARK   88  A    between atoms: _201  and  _204
REMARK   89  A    between atoms: _204  and  _205
REMARK   90  A    between atoms: _207  and  _209
REMARK   91  A    between atoms: _209  and  _210
REMARK   92  A    between atoms: _213  and  _215
REMARK   93  A    between atoms: _215  and  _216
REMARK   94  A    between atoms: _215  and  _218
REMARK   95  A    between atoms: _218  and  _219
REMARK   96  A    between atoms: _224  and  _225
REMARK   97  A    between atoms: _227  and  _229
REMARK   98  A    between atoms: _229  and  _230
REMARK   99  A    between atoms: _229  and  _232
REMARK  100  A    between atoms: _232  and  _233
REMARK  101  A    between atoms: _233  and  _234
REMARK  102  A    between atoms: _237  and  _239
REMARK  103  A    between atoms: _239  and  _240
REMARK  104  A    between atoms: _239  and  _242
REMARK  105  A    between atoms: _242  and  _243
REMARK  106  A    between atoms: _249  and  _251
REMARK  107  A    between atoms: _251  and  _252
REMARK  108  A    between atoms: _251  and  _254
REMARK  109  A    between atoms: _254  and  _255
REMARK  110  A    between atoms: _260  and  _261
REMARK  111  A    between atoms: _263  and  _265
REMARK  112  A    between atoms: _265  and  _266
REMARK  113  A    between atoms: _265  and  _268
REMARK  114  A    between atoms: _268  and  _269
REMARK  115  A    between atoms: _274  and  _276
REMARK  116  A    between atoms: _276  and  _277
REMARK  117  A    between atoms: _276  and  _279
REMARK  118  A    between atoms: _279  and  _280
REMARK  119  A    between atoms: _285  and  _287
REMARK  120  A    between atoms: _287  and  _288
REMARK  121  A    between atoms: _287  and  _290
REMARK  122  A    between atoms: _290  and  _291
REMARK  123  A    between atoms: _291  and  _292
REMARK  124  A    between atoms: _294  and  _296
REMARK  125  A    between atoms: _296  and  _297
REMARK  126  A    between atoms: _296  and  _299
REMARK  127  A    between atoms: _299  and  _300
REMARK  128  A    between atoms: _303  and  _305
REMARK  129  A    between atoms: _305  and  _306
REMARK  130  A    between atoms: _305  and  _308
REMARK  131  A    between atoms: _308  and  _309
REMARK  132  A    between atoms: _309  and  _310
REMARK  133  A    between atoms: _310  and  _311
REMARK  134  A    between atoms: _311  and  _312
REMARK  135  A    between atoms: _316  and  _318
REMARK  136  A    between atoms: _318  and  _319
REMARK  137  A    between atoms: _318  and  _321
REMARK  138  A    between atoms: _321  and  _322
REMARK  139  A    between atoms: _324  and  _326
REMARK  140  A    between atoms: _326  and  _327
REMARK  141  A    between atoms: _326  and  _329
REMARK  142  A    between atoms: _329  and  _330
REMARK  143  A    between atoms: _335  and  _337
REMARK  144  A    between atoms: _337  and  _338
REMARK  145  A    between atoms: _337  and  _340
REMARK  146  A    between atoms: _340  and  _341
REMARK  147  A    between atoms: _341  and  _342
REMARK  148  A    between atoms: _347  and  _349
REMARK  149  A    between atoms: _349  and  _350
REMARK  150  A    between atoms: _349  and  _352
REMARK  151  A    between atoms: _352  and  _353
REMARK  152  A    between atoms: _358  and  _360
REMARK  153  A    between atoms: _360  and  _361
REMARK  154  A    between atoms: _360  and  _363
REMARK  155  A    between atoms: _363  and  _364
REMARK  156  A    between atoms: _367  and  _369
REMARK  157  A    between atoms: _369  and  _370
REMARK  158  A    between atoms: _369  and  _372
REMARK  159  A    between atoms: _374  and  _376
REMARK  160  A    between atoms: _376  and  _377
REMARK  161  A    between atoms: _379  and  _381
REMARK  162  A    between atoms: _381  and  _382
REMARK  163  A    between atoms: _381  and  _384
REMARK  164  A    between atoms: _384  and  _385
REMARK  165  A    between atoms: _385  and  _386
REMARK  166  A    between atoms: _391  and  _393
REMARK  167  A    between atoms: _393  and  _394
REMARK  168  A    between atoms: _393  and  _396
REMARK  169  A    between atoms: _399  and  _401
REMARK  170  A    between atoms: _401  and  _402
REMARK  171  A    between atoms: _401  and  _404
REMARK  172  A    between atoms: _407  and  _409
REMARK  173  A    between atoms: _409  and  _410
REMARK  174  A    between atoms: _409  and  _412
REMARK  175  A    between atoms: _412  and  _413
REMARK  176  A    between atoms: _415  and  _417
REMARK  177  A    between atoms: _417  and  _418
REMARK  178  A    between atoms: _420  and  _422
REMARK  179  A    between atoms: _422  and  _423
REMARK  180  A    between atoms: _422  and  _425
REMARK  181  A    between atoms: _425  and  _426
REMARK  182  A    between atoms: _431  and  _432
REMARK  183  A    between atoms: _434  and  _436
REMARK  184  A    between atoms: _436  and  _437
REMARK  185  A    between atoms: _436  and  _439
REMARK  186  A    between atoms: _439  and  _440
REMARK  187  A    between atoms: _440  and  _441
REMARK  188  A    between atoms: _441  and  _442
REMARK  189  A    between atoms: _451  and  _453
REMARK  190  A    between atoms: _453  and  _454
REMARK  191  A    between atoms: _453  and  _456
REMARK  192  A    between atoms: _456  and  _457
REMARK  193  A    between atoms: _457  and  _458
REMARK  194  A    between atoms: _460  and  _462
REMARK  195  A    between atoms: _462  and  _463
REMARK  196  A    between atoms: _462  and  _465
REMARK  197  A    between atoms: _465  and  _466
REMARK  198  A    between atoms: _469  and  _471
REMARK  199  A    between atoms: _471  and  _472
REMARK  200  A    between atoms: _471  and  _474
REMARK  201  A    between atoms: _477  and  _479
REMARK  202  A    between atoms: _479  and  _480
REMARK  203  A    between atoms: _479  and  _482
REMARK  204  A    between atoms: _482  and  _483
REMARK  205  A    between atoms: _486  and  _488
REMARK  206  A    between atoms: _488  and  _489
REMARK  207  A    between atoms: _488  and  _491
REMARK  208  A    between atoms: _491  and  _492
REMARK  209  A    between atoms: _492  and  _493
REMARK  210  A    between atoms: _496  and  _498
REMARK  211  A    between atoms: _498  and  _499
REMARK  212  A    between atoms: _498  and  _501
REMARK  213  A    between atoms: _501  and  _502
REMARK  214  A    between atoms: _505  and  _507
REMARK  215  A    between atoms: _507  and  _508
REMARK  216  A    between atoms: _507  and  _510
REMARK  217  A    between atoms: _510  and  _511
REMARK  218  A    between atoms: _511  and  _512
REMARK  219  A    between atoms: _517  and  _519
REMARK  220  A    between atoms: _519  and  _520
REMARK  221  A    between atoms: _522  and  _524
REMARK  222  A    between atoms: _524  and  _525
REMARK  223  A    between atoms: _524  and  _527
REMARK  224  A    between atoms: _527  and  _528
REMARK  225  A    between atoms: _531  and  _533
REMARK  226  A    between atoms: _533  and  _534
REMARK  227  A    between atoms: _533  and  _536
REMARK  228  A    between atoms: _539  and  _541
REMARK  229  A    between atoms: _541  and  _542
REMARK  230  A    between atoms: _541  and  _544
REMARK  231  A    between atoms: _546  and  _548
REMARK  232  A    between atoms: _548  and  _549
REMARK  233  A    between atoms: _548  and  _551
REMARK  234  A    between atoms: _551  and  _552
REMARK  235  A    between atoms: _555  and  _557
REMARK  236  A    between atoms: _557  and  _558
REMARK  237  A    between atoms: _557  and  _560
REMARK  238  A    between atoms: _560  and  _561
REMARK  239  A    between atoms: _561  and  _562
REMARK  240  A    between atoms: _564  and  _566
REMARK  241  A    between atoms: _566  and  _567
REMARK  242  A    between atoms: _566  and  _569
REMARK  243  A    between atoms: _571  and  _573
REMARK  244  A    between atoms: _573  and  _574
REMARK  245  A    between atoms: _573  and  _576
REMARK  246  A    between atoms: _579  and  _581
REMARK  247  A    between atoms: _581  and  _582
REMARK  248  A    between atoms: _581  and  _584
REMARK  249  A    between atoms: _584  and  _585
REMARK  250  A    between atoms: _590  and  _592
REMARK  251  A    between atoms: _592  and  _593
REMARK  252  A    between atoms: _592  and  _595
REMARK  253  A    between atoms: _595  and  _596
REMARK  254  A    between atoms: _601  and  _602
REMARK                            x       y       z     vdW  Elec       q    Type
REMARK                         _______ _______ _______ _____ _____    ______ ____
ROOT
ATOM      1  CA  ARG A   2       4.421   2.724  36.164  0.00  0.00    +0.149 C 
ENDROOT
BRANCH   1   4
ATOM      2  C   TYR A   1       6.478   1.785  37.045  0.00  0.00    +0.239 C 
ATOM      3  O   TYR A   1       6.004   0.657  37.082  0.00  0.00    -0.274 OA
ATOM      4  N   ARG A   2       5.794   2.840  36.622  0.00  0.00    -0.297 N 
ATOM      5  H   ARG A   2       6.253   3.773  36.618  0.00  0.00    +0.150 HD
BRANCH   2   6
ATOM      6  CA  TYR A   1       7.895   2.056  37.525  0.00  0.00    +0.149 C 
BRANCH   6   7
ATOM      7  N   TYR A   1       8.448   0.858  38.130  0.00  0.00    -0.238 NA
ATOM      8  H   TYR A   1       8.099  -0.070  37.817  0.00  0.00    +0.142 HD
ENDBRANCH   6   7
BRANCH   6   9
ATOM      9  CB  TYR A   1       8.790   2.536  36.372  0.00  0.00    +0.053 C 
BRANCH   9  10
ATOM     10  CG  TYR A   1       8.863   1.632  35.148  0.00  0.00    -0.020 A 
ATOM     11  CD2 TYR A   1       9.661   0.502  35.147  0.00  0.00    -0.001 A 
ATOM     12  CE2 TYR A   1       9.746  -0.322  34.028  0.00  0.00    +0.036 A 
ATOM     13  CZ  TYR A   1       9.047   0.009  32.881  0.00  0.00    +0.134 A 
ATOM     14  CE1 TYR A   1       8.243   1.136  32.859  0.00  0.00    +0.036 A 
ATOM     15  CD1 TYR A   1       8.170   1.941  33.986  0.00  0.00    -0.001 A 
BRANCH  13  16
ATOM     16  OH  TYR A   1       9.153  -0.805  31.760  0.00  0.00    -0.506 OA
ATOM     17  HH  TYR A   1       9.766  -1.557  31.957  0.00  0.00    +0.292 HD
ENDBRANCH  13  16
ENDBRANCH   9  10
ENDBRANCH   6   9
ENDBRANCH   2   6
ENDBRANCH   1   4
BRANCH   1  18
ATOM     18  C   ARG A   2       4.303   3.061  34.675  0.00  0.00    +0.241 C 
ATOM     19  O   ARG A   2       4.901   4.040  34.216  0.00  0.00    -0.273 OA
ATOM     20  N   MET A   3       3.579   2.216  33.936  0.00  0.00    -0.297 N 
ATOM     21  H   MET A   3       3.264   1.324  34.368  0.00  0.00    +0.150 HD
BRANCH  20  22
ATOM     22  CA  MET A   3       3.207   2.487  32.544  0.00  0.00    +0.149 C 
BRANCH  22  23
ATOM     23  C   MET A   3       1.737   2.909  32.506  0.00  0.00    +0.241 C 
ATOM     24  O   MET A   3       0.843   2.222  33.018  0.00  0.00    -0.273 OA
ATOM     25  N   LEU A   4       1.493   4.055  31.892  0.00  0.00    -0.298 N 
ATOM     26  H   LEU A   4       2.290   4.651  31.589  0.00  0.00    +0.150 HD
BRANCH  25  27
ATOM     27  CA  LEU A   4       0.148   4.493  31.636  0.00  0.00    +0.137 C 
BRANCH  27  28
ATOM     28  C   LEU A   4      -0.565   3.515  30.710  0.00  0.00    +0.227 C 
ATOM     29  O   LEU A   4      -0.032   3.104  29.671  0.00  0.00    -0.286 OA
ENDBRANCH  27  28
BRANCH  27  30
ATOM     30  CB  LEU A   4       0.196   5.905  31.029  0.00  0.00    +0.028 C 
BRANCH  30  31
ATOM     31  CG  LEU A   4       0.918   6.919  31.928  0.00  0.00    +0.002 C 
ATOM     32  CD2 LEU A   4       0.236   7.100  33.276  0.00  0.00    +0.000 C 
ATOM     33  CD1 LEU A   4       1.019   8.255  31.225  0.00  0.00    +0.000 C 
ENDBRANCH  30  31
ENDBRANCH  27  30
ENDBRANCH  25  27
ENDBRANCH  22  23
BRANCH  22  34
ATOM     34  CB  MET A   3       3.431   1.270  31.634  0.00  0.00    +0.041 C 
BRANCH  34  35
ATOM     35  CG  MET A   3       3.220   1.571  30.158  0.00  0.00    +0.060 C 
BRANCH  35  36
ATOM     36  SD  MET A   3       3.352   0.099  29.111  0.00  0.00    -0.139 S 
ATOM     37  CE  MET A   3       3.566   0.859  27.506  0.00  0.00    +0.069 C 
ENDBRANCH  35  36
ENDBRANCH  34  35
ENDBRANCH  22  34
ENDBRANCH  20  22
ENDBRANCH   1  18
BRANCH   1  38
ATOM     38  CB  ARG A   2       3.539   3.658  36.983  0.00  0.00    +0.033 C 
BRANCH  38  39
ATOM     39  CG  ARG A   2       3.341   3.187  38.402  0.00  0.00    +0.045 C 
BRANCH  39  40
ATOM     40  CD  ARG A   2       3.019   4.343  39.331  0.00  0.00    +0.174 C 
BRANCH  40  41
ATOM     41  NE  ARG A   2       4.214   5.107  39.667  0.00  0.00    -0.265 N 
ATOM     42  CZ  ARG A   2       4.316   5.926  40.704  0.00  0.00    +0.342 C 
ATOM     43  NH2 ARG A   2       3.287   6.102  41.527  0.00  0.00    -0.292 N 
ATOM     44 HH21 ARG A   2       3.375   6.746  42.339  0.00  0.00    +0.255 HD
ATOM     45 HH22 ARG A   2       2.394   5.595  41.359  0.00  0.00    +0.255 HD
ATOM     46  NH1 ARG A   2       5.455   6.564  40.926  0.00  0.00    -0.292 N 
ATOM     47 HH11 ARG A   2       5.541   7.208  41.738  0.00  0.00    +0.255 HD
ATOM     48 HH12 ARG A   2       6.264   6.421  40.288  0.00  0.00    +0.255 HD
ATOM     49  HE  ARG A   2       5.045   5.002  39.050  0.00  0.00    +0.259 HD
ENDBRANCH  40  41
ENDBRANCH  39  40
ENDBRANCH  38  39
ENDBRANCH   1  38
TORSDOF 20
REMARK  Name = ../refined-set-2016/4xt2/4xt2_pocket.pdb
REMARK  254 active torsions:
REMARK  status: ('A' for Active; 'I' for Inactive)
REMARK    1  A    between atoms: _1  and  _3
REMARK    2  A    between atoms: _3  and  _4
REMARK    3  A    between atoms: _3  and  _6
REMARK    4  A    between atoms: _6  and  _7
REMARK    5  A    between atoms: _13  and  _15
REMARK    6  A    between atoms: _15  and  _16
REMARK    7  A    between atoms: _15  and  _18
REMARK    8  A    between atoms: _18  and  _19
REMARK    9  A    between atoms: _22  and  _24
REMARK   10  A    between atoms: _24  and  _25
REMARK   11  A    between atoms: _24  and  _27
REMARK   12  A    between atoms: _27  and  _28
REMARK   13  A    between atoms: _30  and  _32
REMARK   14  A    between atoms: _32  and  _33
REMARK   15  A    between atoms: _32  and  _35
REMARK   16  A    between atoms: _35  and  _36
REMARK   17  A    between atoms: _36  and  _37
REMARK   18  A    between atoms: _40  and  _42
REMARK   19  A    between atoms: _42  and  _43
REMARK   20  A    between atoms: _42  and  _45
REMARK   21  A    between atoms: _45  and  _46
REMARK   22  A    between atoms: _51  and  _53
REMARK   23  A    between atoms: _53  and  _54
REMARK   24  A    between atoms: _53  and  _56
REMARK   25  A    between atoms: _56  and  _57
REMARK   26  A    between atoms: _59  and  _61
REMARK   27  A    between atoms: _61  and  _62
REMARK   28  A    between atoms: _61  and  _64
REMARK   29  A    between atoms: _64  and  _65
REMARK   30  A    between atoms: _65  and  _66
REMARK   31  A    between atoms: _68  and  _70
REMARK   32  A    between atoms: _70  and  _71
REMARK   33  A    between atoms: _70  and  _73
REMARK   34  A    between atoms: _73  and  _74
REMARK   35  A    between atoms: _77  and  _79
REMARK   36  A    between atoms: _79  and  _80
REMARK   37  A    between atoms: _79  and  _82
REMARK   38  A    between atoms: _82  and  _83
REMARK   39  A    between atoms: _83  and  _84
REMARK   40  A    between atoms: _86  and  _88
REMARK   41  A    between atoms: _88  and  _89
REMARK   42  A    between atoms: _88  and  _91
REMARK   43  A    between atoms: _91  and  _92
REMARK   44  A    between atoms: _92  and  _93
REMARK   45  A    between atoms: _93  and  _94
REMARK   46  A    between atoms: _94  and  _95
REMARK   47  A    between atoms: _99  and  _101
REMARK   48  A    between atoms: _101  and  _102
REMARK   49  A    between atoms: _101  and  _104
REMARK   50  A    between atoms: _104  and  _105
REMARK   51  A    between atoms: _111  and  _113
REMARK   52  A    between atoms: _113  and  _114
REMARK   53  A    between atoms: _113  and  _116
REMARK   54  A    between atoms: _116  and  _117
REMARK   55  A    between atoms: _120  and  _122
REMARK   56  A    between atoms: _122  and  _123
REMARK   57  A    between atoms: _122  and  _125
REMARK   58  A    between atoms: _125  and  _126
REMARK   59  A    between atoms: _131  and  _132
REMARK   60  A    between atoms: _134  and  _136
REMARK   61  A    between atoms: _136  and  _137
REMARK   62  A    between atoms: _136  and  _139
REMARK   63  A    between atoms: _141  and  _143
REMARK   64  A    between atoms: _143  and  _144
REMARK   65  A    between atoms: _143  and  _146
REMARK   66  A    between atoms: _146  and  _147
REMARK   67  A    between atoms: _150  and  _152
REMARK   68  A    between atoms: _152  and  _153
REMARK   69  A    between atoms: _152  and  _155
REMARK   70  A    between atoms: _155  and  _156
REMARK   71  A    between atoms: _159  and  _161
REMARK   72  A    between atoms: _161  and  _162
REMARK   73  A    between atoms: _161  and  _164
REMARK   74  A    between atoms: _164  and  _165
REMARK   75  A    between atoms: _170  and  _171
REMARK   76  A    between atoms: _173  and  _175
REMARK   77  A    between atoms: _175  and  _176
REMARK   78  A    between atoms: _175  and  _178
REMARK   79  A    between atoms: _178  and  _179
REMARK   80  A    between atoms: _182  and  _184
REMARK   81  A    between atoms: _184  and  _185
REMARK   82  A    between atoms: _184  and  _187
REMARK   83  A    between atoms: _187  and  _188
REMARK   84  A    between atoms: _188  and  _189
REMARK   85  A    between atoms: _189  and  _190
REMARK   86  A    between atoms: _199  and  _201
REMARK   87  A    between atoms: _201  and  _202
REMARK   88  A    between atoms: _201  and  _204
REMARK   89  A    between atoms: _204  and  _205
REMARK   90  A    between atoms: _207  and  _209
REMARK   91  A    between atoms: _209  and  _210
REMARK   92  A    between atoms: _213  and  _215
REMARK   93  A    between atoms: _215  and  _216
REMARK   94  A    between atoms: _215  and  _218
REMARK   95  A    between atoms: _218  and  _219
REMARK   96  A    between atoms: _224  and  _225
REMARK   97  A    between atoms: _227  and  _229
REMARK   98  A    between atoms: _229  and  _230
REMARK   99  A    between atoms: _229  and  _232
REMARK  100  A    between atoms: _232  and  _233
REMARK  101  A    between atoms: _233  and  _234
REMARK  102  A    between atoms: _237  and  _239
REMARK  103  A    between atoms: _239  and  _240
REMARK  104  A    between atoms: _239  and  _242
REMARK  105  A    between atoms: _242  and  _243
REMARK  106  A    between atoms: _249  and  _251
REMARK  107  A    between atoms: _251  and  _252
REMARK  108  A    between atoms: _251  and  _254
REMARK  109  A    between atoms: _254  and  _255
REMARK  110  A    between atoms: _260  and  _261
REMARK  111  A    between atoms: _263  and  _265
REMARK  112  A    between atoms: _265  and  _266
REMARK  113  A    between atoms: _265  and  _268
REMARK  114  A    between atoms: _268  and  _269
REMARK  115  A    between atoms: _274  and  _276
REMARK  116  A    between atoms: _276  and  _277
REMARK  117  A    between atoms: _276  and  _279
REMARK  118  A    between atoms: _279  and  _280
REMARK  119  A    between atoms: _285  and  _287
REMARK  120  A    between atoms: _287  and  _288
REMARK  121  A    between atoms: _287  and  _290
REMARK  122  A    between atoms: _290  and  _291
REMARK  123  A    between atoms: _291  and  _292
REMARK  124  A    between atoms: _294  and  _296
REMARK  125  A    between atoms: _296  and  _297
REMARK  126  A    between atoms: _296  and  _299
REMARK  127  A    between atoms: _299  and  _300
REMARK  128  A    between atoms: _303  and  _305
REMARK  129  A    between atoms: _305  and  _306
REMARK  130  A    between atoms: _305  and  _308
REMARK  131  A    between atoms: _308  and  _309
REMARK  132  A    between atoms: _309  and  _310
REMARK  133  A    between atoms: _310  and  _311
REMARK  134  A    between atoms: _311  and  _312
REMARK  135  A    between atoms: _316  and  _318
REMARK  136  A    between atoms: _318  and  _319
REMARK  137  A    between atoms: _318  and  _321
REMARK  138  A    between atoms: _321  and  _322
REMARK  139  A    between atoms: _324  and  _326
REMARK  140  A    between atoms: _326  and  _327
REMARK  141  A    between atoms: _326  and  _329
REMARK  142  A    between atoms: _329  and  _330
REMARK  143  A    between atoms: _335  and  _337
REMARK  144  A    between atoms: _337  and  _338
REMARK  145  A    between atoms: _337  and  _340
REMARK  146  A    between atoms: _340  and  _341
REMARK  147  A    between atoms: _341  and  _342
REMARK  148  A    between atoms: _347  and  _349
REMARK  149  A    between atoms: _349  and  _350
REMARK  150  A    between atoms: _349  and  _352
REMARK  151  A    between atoms: _352  and  _353
REMARK  152  A    between atoms: _358  and  _360
REMARK  153  A    between atoms: _360  and  _361
REMARK  154  A    between atoms: _360  and  _363
REMARK  155  A    between atoms: _363  and  _364
REMARK  156  A    between atoms: _367  and  _369
REMARK  157  A    between atoms: _369  and  _370
REMARK  158  A    between atoms: _369  and  _372
REMARK  159  A    between atoms: _374  and  _376
REMARK  160  A    between atoms: _376  and  _377
REMARK  161  A    between atoms: _379  and  _381
REMARK  162  A    between atoms: _381  and  _382
REMARK  163  A    between atoms: _381  and  _384
REMARK  164  A    between atoms: _384  and  _385
REMARK  165  A    between atoms: _385  and  _386
REMARK  166  A    between atoms: _391  and  _393
REMARK  167  A    between atoms: _393  and  _394
REMARK  168  A    between atoms: _393  and  _396
REMARK  169  A    between atoms: _399  and  _401
REMARK  170  A    between atoms: _401  and  _402
REMARK  171  A    between atoms: _401  and  _404
REMARK  172  A    between atoms: _407  and  _409
REMARK  173  A    between atoms: _409  and  _410
REMARK  174  A    between atoms: _409  and  _412
REMARK  175  A    between atoms: _412  and  _413
REMARK  176  A    between atoms: _415  and  _417
REMARK  177  A    between atoms: _417  and  _418
REMARK  178  A    between atoms: _420  and  _422
REMARK  179  A    between atoms: _422  and  _423
REMARK  180  A    between atoms: _422  and  _425
REMARK  181  A    between atoms: _425  and  _426
REMARK  182  A    between atoms: _431  and  _432
REMARK  183  A    between atoms: _434  and  _436
REMARK  184  A    between atoms: _436  and  _437
REMARK  185  A    between atoms: _436  and  _439
REMARK  186  A    between atoms: _439  and  _440
REMARK  187  A    between atoms: _440  and  _441
REMARK  188  A    between atoms: _441  and  _442
REMARK  189  A    between atoms: _451  and  _453
REMARK  190  A    between atoms: _453  and  _454
REMARK  191  A    between atoms: _453  and  _456
REMARK  192  A    between atoms: _456  and  _457
REMARK  193  A    between atoms: _457  and  _458
REMARK  194  A    between atoms: _460  and  _462
REMARK  195  A    between atoms: _462  and  _463
REMARK  196  A    between atoms: _462  and  _465
REMARK  197  A    between atoms: _465  and  _466
REMARK  198  A    between atoms: _469  and  _471
REMARK  199  A    between atoms: _471  and  _472
REMARK  200  A    between atoms: _471  and  _474
REMARK  201  A    between atoms: _477  and  _479
REMARK  202  A    between atoms: _479  and  _480
REMARK  203  A    between atoms: _479  and  _482
REMARK  204  A    between atoms: _482  and  _483
REMARK  205  A    between atoms: _486  and  _488
REMARK  206  A    between atoms: _488  and  _489
REMARK  207  A    between atoms: _488  and  _491
REMARK  208  A    between atoms: _491  and  _492
REMARK  209  A    between atoms: _492  and  _493
REMARK  210  A    between atoms: _496  and  _498
REMARK  211  A    between atoms: _498  and  _499
REMARK  212  A    between atoms: _498  and  _501
REMARK  213  A    between atoms: _501  and  _502
REMARK  214  A    between atoms: _505  and  _507
REMARK  215  A    between atoms: _507  and  _508
REMARK  216  A    between atoms: _507  and  _510
REMARK  217  A    between atoms: _510  and  _511
REMARK  218  A    between atoms: _511  and  _512
REMARK  219  A    between atoms: _517  and  _519
REMARK  220  A    between atoms: _519  and  _520
REMARK  221  A    between atoms: _522  and  _524
REMARK  222  A    between atoms: _524  and  _525
REMARK  223  A    between atoms: _524  and  _527
REMARK  224  A    between atoms: _527  and  _528
REMARK  225  A    between atoms: _531  and  _533
REMARK  226  A    between atoms: _533  and  _534
REMARK  227  A    between atoms: _533  and  _536
REMARK  228  A    between atoms: _539  and  _541
REMARK  229  A    between atoms: _541  and  _542
REMARK  230  A    between atoms: _541  and  _544
REMARK  231  A    between atoms: _546  and  _548
REMARK  232  A    between atoms: _548  and  _549
REMARK  233  A    between atoms: _548  and  _551
REMARK  234  A    between atoms: _551  and  _552
REMARK  235  A    between atoms: _555  and  _557
REMARK  236  A    between atoms: _557  and  _558
REMARK  237  A    between atoms: _557  and  _560
REMARK  238  A    between atoms: _560  and  _561
REMARK  239  A    between atoms: _561  and  _562
REMARK  240  A    between atoms: _564  and  _566
REMARK  241  A    between atoms: _566  and  _567
REMARK  242  A    between atoms: _566  and  _569
REMARK  243  A    between atoms: _571  and  _573
REMARK  244  A    between atoms: _573  and  _574
REMARK  245  A    between atoms: _573  and  _576
REMARK  246  A    between atoms: _579  and  _581
REMARK  247  A    between atoms: _581  and  _582
REMARK  248  A    between atoms: _581  and  _584
REMARK  249  A    between atoms: _584  and  _585
REMARK  250  A    between atoms: _590  and  _592
REMARK  251  A    between atoms: _592  and  _593
REMARK  252  A    between atoms: _592  and  _595
REMARK  253  A    between atoms: _595  and  _596
REMARK  254  A    between atoms: _601  and  _602
REMARK                            x       y       z     vdW  Elec       q    Type
REMARK                         _______ _______ _______ _____ _____    ______ ____
ROOT
ATOM      1  CA  VAL A   1       0.113  -0.608  35.901  0.00  0.00    +0.133 C 
ENDROOT
BRANCH   1   2
ATOM      2  CB  VAL A   1       0.074  -1.881  35.002  0.00  0.00    +0.023 C 
ATOM      3  CG2 VAL A   1      -1.326  -2.148  34.524  0.00  0.00    +0.002 C 
ATOM      4  CG1 VAL A   1       1.026  -1.726  33.793  0.00  0.00    +0.002 C 
ENDBRANCH   1   2
BRANCH   1   5
ATOM      5  N   VAL A   1      -0.349   0.592  35.217  0.00  0.00    -0.239 NA
ATOM      6  H   VAL A   1       0.196   0.947  34.406  0.00  0.00    +0.142 HD
ENDBRANCH   1   5
BRANCH   1   7
ATOM      7  C   VAL A   1       1.546  -0.408  36.377  0.00  0.00    +0.224 C 
ATOM      8  O   VAL A   1       2.348   0.270  35.735  0.00  0.00    -0.287 OA
ENDBRANCH   1   7
TORSDOF 3
REMARK  Name = ../refined-set-2016/4xt2/4xt2_pocket.pdb
REMARK  254 active torsions:
REMARK  status: ('A' for Active; 'I' for Inactive)
REMARK    1  A    between atoms: _1  and  _3
REMARK    2  A    between atoms: _3  and  _4
REMARK    3  A    between atoms: _3  and  _6
REMARK    4  A    between atoms: _6  and  _7
REMARK    5  A    between atoms: _13  and  _15
REMARK    6  A    between atoms: _15  and  _16
REMARK    7  A    between atoms: _15  and  _18
REMARK    8  A    between atoms: _18  and  _19
REMARK    9  A    between atoms: _22  and  _24
REMARK   10  A    between atoms: _24  and  _25
REMARK   11  A    between atoms: _24  and  _27
REMARK   12  A    between atoms: _27  and  _28
REMARK   13  A    between atoms: _30  and  _32
REMARK   14  A    between atoms: _32  and  _33
REMARK   15  A    between atoms: _32  and  _35
REMARK   16  A    between atoms: _35  and  _36
REMARK   17  A    between atoms: _36  and  _37
REMARK   18  A    between atoms: _40  and  _42
REMARK   19  A    between atoms: _42  and  _43
REMARK   20  A    between atoms: _42  and  _45
REMARK   21  A    between atoms: _45  and  _46
REMARK   22  A    between atoms: _51  and  _53
REMARK   23  A    between atoms: _53  and  _54
REMARK   24  A    between atoms: _53  and  _56
REMARK   25  A    between atoms: _56  and  _57
REMARK   26  A    between atoms: _59  and  _61
REMARK   27  A    between atoms: _61  and  _62
REMARK   28  A    between atoms: _61  and  _64
REMARK   29  A    between atoms: _64  and  _65
REMARK   30  A    between atoms: _65  and  _66
REMARK   31  A    between atoms: _68  and  _70
REMARK   32  A    between atoms: _70  and  _71
REMARK   33  A    between atoms: _70  and  _73
REMARK   34  A    between atoms: _73  and  _74
REMARK   35  A    between atoms: _77  and  _79
REMARK   36  A    between atoms: _79  and  _80
REMARK   37  A    between atoms: _79  and  _82
REMARK   38  A    between atoms: _82  and  _83
REMARK   39  A    between atoms: _83  and  _84
REMARK   40  A    between atoms: _86  and  _88
REMARK   41  A    between atoms: _88  and  _89
REMARK   42  A    between atoms: _88  and  _91
REMARK   43  A    between atoms: _91  and  _92
REMARK   44  A    between atoms: _92  and  _93
REMARK   45  A    between atoms: _93  and  _94
REMARK   46  A    between atoms: _94  and  _95
REMARK   47  A    between atoms: _99  and  _101
REMARK   48  A    between atoms: _101  and  _102
REMARK   49  A    between atoms: _101  and  _104
REMARK   50  A    between atoms: _104  and  _105
REMARK   51  A    between atoms: _111  and  _113
REMARK   52  A    between atoms: _113  and  _114
REMARK   53  A    between atoms: _113  and  _116
REMARK   54  A    between atoms: _116  and  _117
REMARK   55  A    between atoms: _120  and  _122
REMARK   56  A    between atoms: _122  and  _123
REMARK   57  A    between atoms: _122  and  _125
REMARK   58  A    between atoms: _125  and  _126
REMARK   59  A    between atoms: _131  and  _132
REMARK   60  A    between atoms: _134  and  _136
REMARK   61  A    between atoms: _136  and  _137
REMARK   62  A    between atoms: _136  and  _139
REMARK   63  A    between atoms: _141  and  _143
REMARK   64  A    between atoms: _143  and  _144
REMARK   65  A    between atoms: _143  and  _146
REMARK   66  A    between atoms: _146  and  _147
REMARK   67  A    between atoms: _150  and  _152
REMARK   68  A    between atoms: _152  and  _153
REMARK   69  A    between atoms: _152  and  _155
REMARK   70  A    between atoms: _155  and  _156
REMARK   71  A    between atoms: _159  and  _161
REMARK   72  A    between atoms: _161  and  _162
REMARK   73  A    between atoms: _161  and  _164
REMARK   74  A    between atoms: _164  and  _165
REMARK   75  A    between atoms: _170  and  _171
REMARK   76  A    between atoms: _173  and  _175
REMARK   77  A    between atoms: _175  and  _176
REMARK   78  A    between atoms: _175  and  _178
REMARK   79  A    between atoms: _178  and  _179
REMARK   80  A    between atoms: _182  and  _184
REMARK   81  A    between atoms: _184  and  _185
REMARK   82  A    between atoms: _184  and  _187
REMARK   83  A    between atoms: _187  and  _188
REMARK   84  A    between atoms: _188  and  _189
REMARK   85  A    between atoms: _189  and  _190
REMARK   86  A    between atoms: _199  and  _201
REMARK   87  A    between atoms: _201  and  _202
REMARK   88  A    between atoms: _201  and  _204
REMARK   89  A    between atoms: _204  and  _205
REMARK   90  A    between atoms: _207  and  _209
REMARK   91  A    between atoms: _209  and  _210
REMARK   92  A    between atoms: _213  and  _215
REMARK   93  A    between atoms: _215  and  _216
REMARK   94  A    between atoms: _215  and  _218
REMARK   95  A    between atoms: _218  and  _219
REMARK   96  A    between atoms: _224  and  _225
REMARK   97  A    between atoms: _227  and  _229
REMARK   98  A    between atoms: _229  and  _230
REMARK   99  A    between atoms: _229  and  _232
REMARK  100  A    between atoms: _232  and  _233
REMARK  101  A    between atoms: _233  and  _234
REMARK  102  A    between atoms: _237  and  _239
REMARK  103  A    between atoms: _239  and  _240
REMARK  104  A    between atoms: _239  and  _242
REMARK  105  A    between atoms: _242  and  _243
REMARK  106  A    between atoms: _249  and  _251
REMARK  107  A    between atoms: _251  and  _252
REMARK  108  A    between atoms: _251  and  _254
REMARK  109  A    between atoms: _254  and  _255
REMARK  110  A    between atoms: _260  and  _261
REMARK  111  A    between atoms: _263  and  _265
REMARK  112  A    between atoms: _265  and  _266
REMARK  113  A    between atoms: _265  and  _268
REMARK  114  A    between atoms: _268  and  _269
REMARK  115  A    between atoms: _274  and  _276
REMARK  116  A    between atoms: _276  and  _277
REMARK  117  A    between atoms: _276  and  _279
REMARK  118  A    between atoms: _279  and  _280
REMARK  119  A    between atoms: _285  and  _287
REMARK  120  A    between atoms: _287  and  _288
REMARK  121  A    between atoms: _287  and  _290
REMARK  122  A    between atoms: _290  and  _291
REMARK  123  A    between atoms: _291  and  _292
REMARK  124  A    between atoms: _294  and  _296
REMARK  125  A    between atoms: _296  and  _297
REMARK  126  A    between atoms: _296  and  _299
REMARK  127  A    between atoms: _299  and  _300
REMARK  128  A    between atoms: _303  and  _305
REMARK  129  A    between atoms: _305  and  _306
REMARK  130  A    between atoms: _305  and  _308
REMARK  131  A    between atoms: _308  and  _309
REMARK  132  A    between atoms: _309  and  _310
REMARK  133  A    between atoms: _310  and  _311
REMARK  134  A    between atoms: _311  and  _312
REMARK  135  A    between atoms: _316  and  _318
REMARK  136  A    between atoms: _318  and  _319
REMARK  137  A    between atoms: _318  and  _321
REMARK  138  A    between atoms: _321  and  _322
REMARK  139  A    between atoms: _324  and  _326
REMARK  140  A    between atoms: _326  and  _327
REMARK  141  A    between atoms: _326  and  _329
REMARK  142  A    between atoms: _329  and  _330
REMARK  143  A    between atoms: _335  and  _337
REMARK  144  A    between atoms: _337  and  _338
REMARK  145  A    between atoms: _337  and  _340
REMARK  146  A    between atoms: _340  and  _341
REMARK  147  A    between atoms: _341  and  _342
REMARK  148  A    between atoms: _347  and  _349
REMARK  149  A    between atoms: _349  and  _350
REMARK  150  A    between atoms: _349  and  _352
REMARK  151  A    between atoms: _352  and  _353
REMARK  152  A    between atoms: _358  and  _360
REMARK  153  A    between atoms: _360  and  _361
REMARK  154  A    between atoms: _360  and  _363
REMARK  155  A    between atoms: _363  and  _364
REMARK  156  A    between atoms: _367  and  _369
REMARK  157  A    between atoms: _369  and  _370
REMARK  158  A    between atoms: _369  and  _372
REMARK  159  A    between atoms: _374  and  _376
REMARK  160  A    between atoms: _376  and  _377
REMARK  161  A    between atoms: _379  and  _381
REMARK  162  A    between atoms: _381  and  _382
REMARK  163  A    between atoms: _381  and  _384
REMARK  164  A    between atoms: _384  and  _385
REMARK  165  A    between atoms: _385  and  _386
REMARK  166  A    between atoms: _391  and  _393
REMARK  167  A    between atoms: _393  and  _394
REMARK  168  A    between atoms: _393  and  _396
REMARK  169  A    between atoms: _399  and  _401
REMARK  170  A    between atoms: _401  and  _402
REMARK  171  A    between atoms: _401  and  _404
REMARK  172  A    between atoms: _407  and  _409
REMARK  173  A    between atoms: _409  and  _410
REMARK  174  A    between atoms: _409  and  _412
REMARK  175  A    between atoms: _412  and  _413
REMARK  176  A    between atoms: _415  and  _417
REMARK  177  A    between atoms: _417  and  _418
REMARK  178  A    between atoms: _420  and  _422
REMARK  179  A    between atoms: _422  and  _423
REMARK  180  A    between atoms: _422  and  _425
REMARK  181  A    between atoms: _425  and  _426
REMARK  182  A    between atoms: _431  and  _432
REMARK  183  A    between atoms: _434  and  _436
REMARK  184  A    between atoms: _436  and  _437
REMARK  185  A    between atoms: _436  and  _439
REMARK  186  A    between atoms: _439  and  _440
REMARK  187  A    between atoms: _440  and  _441
REMARK  188  A    between atoms: _441  and  _442
REMARK  189  A    between atoms: _451  and  _453
REMARK  190  A    between atoms: _453  and  _454
REMARK  191  A    between atoms: _453  and  _456
REMARK  192  A    between atoms: _456  and  _457
REMARK  193  A    between atoms: _457  and  _458
REMARK  194  A    between atoms: _460  and  _462
REMARK  195  A    between atoms: _462  and  _463
REMARK  196  A    between atoms: _462  and  _465
REMARK  197  A    between atoms: _465  and  _466
REMARK  198  A    between atoms: _469  and  _471
REMARK  199  A    between atoms: _471  and  _472
REMARK  200  A    between atoms: _471  and  _474
REMARK  201  A    between atoms: _477  and  _479
REMARK  202  A    between atoms: _479  and  _480
REMARK  203  A    between atoms: _479  and  _482
REMARK  204  A    between atoms: _482  and  _483
REMARK  205  A    between atoms: _486  and  _488
REMARK  206  A    between atoms: _488  and  _489
REMARK  207  A    between atoms: _488  and  _491
REMARK  208  A    between atoms: _491  and  _492
REMARK  209  A    between atoms: _492  and  _493
REMARK  210  A    between atoms: _496  and  _498
REMARK  211  A    between atoms: _498  and  _499
REMARK  212  A    between atoms: _498  and  _501
REMARK  213  A    between atoms: _501  and  _502
REMARK  214  A    between atoms: _505  and  _507
REMARK  215  A    between atoms: _507  and  _508
REMARK  216  A    between atoms: _507  and  _510
REMARK  217  A    between atoms: _510  and  _511
REMARK  218  A    between atoms: _511  and  _512
REMARK  219  A    between atoms: _517  and  _519
REMARK  220  A    between atoms: _519  and  _520
REMARK  221  A    between atoms: _522  and  _524
REMARK  222  A    between atoms: _524  and  _525
REMARK  223  A    between atoms: _524  and  _527
REMARK  224  A    between atoms: _527  and  _528
REMARK  225  A    between atoms: _531  and  _533
REMARK  226  A    between atoms: _533  and  _534
REMARK  227  A    between atoms: _533  and  _536
REMARK  228  A    between atoms: _539  and  _541
REMARK  229  A    between atoms: _541  and  _542
REMARK  230  A    between atoms: _541  and  _544
REMARK  231  A    between atoms: _546  and  _548
REMARK  232  A    between atoms: _548  and  _549
REMARK  233  A    between atoms: _548  and  _551
REMARK  234  A    between atoms: _551  and  _552
REMARK  235  A    between atoms: _555  and  _557
REMARK  236  A    between atoms: _557  and  _558
REMARK  237  A    between atoms: _557  and  _560
REMARK  238  A    between atoms: _560  and  _561
REMARK  239  A    between atoms: _561  and  _562
REMARK  240  A    between atoms: _564  and  _566
REMARK  241  A    between atoms: _566  and  _567
REMARK  242  A    between atoms: _566  and  _569
REMARK  243  A    between atoms: _571  and  _573
REMARK  244  A    between atoms: _573  and  _574
REMARK  245  A    between atoms: _573  and  _576
REMARK  246  A    between atoms: _579  and  _581
REMARK  247  A    between atoms: _581  and  _582
REMARK  248  A    between atoms: _581  and  _584
REMARK  249  A    between atoms: _584  and  _585
REMARK  250  A    between atoms: _590  and  _592
REMARK  251  A    between atoms: _592  and  _593
REMARK  252  A    between atoms: _592  and  _595
REMARK  253  A    between atoms: _595  and  _596
REMARK  254  A    between atoms: _601  and  _602
REMARK                            x       y       z     vdW  Elec       q    Type
REMARK                         _______ _______ _______ _____ _____    ______ ____
ROOT
ATOM      1  CA  GLN A   4      15.176  -6.559  32.908  0.00  0.00    +0.149 C 
ENDROOT
BRANCH   1   2
ATOM      2  C   GLN A   4      15.601  -6.138  31.506  0.00  0.00    +0.241 C 
ATOM      3  N   GLY A   5      16.554  -5.215  31.413  0.00  0.00    -0.295 N 
ATOM      4  H   GLY A   5      16.968  -4.818  32.280  0.00  0.00    +0.150 HD
ATOM      5  O   GLN A   4      15.053  -6.641  30.523  0.00  0.00    -0.273 OA
BRANCH   3   6
ATOM      6  CA  GLY A   5      17.026  -4.753  30.120  0.00  0.00    +0.176 C 
BRANCH   6   7
ATOM      7  C   GLY A   5      18.379  -5.310  29.779  0.00  0.00    +0.243 C 
ATOM      8  O   GLY A   5      19.207  -5.540  30.663  0.00  0.00    -0.273 OA
ATOM      9  N   THR A   6      18.602  -5.523  28.487  0.00  0.00    -0.295 N 
ATOM     10  H   THR A   6      17.857  -5.281  27.803  0.00  0.00    +0.150 HD
BRANCH   9  11
ATOM     11  CA  THR A   6      19.846  -6.081  27.997  0.00  0.00    +0.176 C 
BRANCH  11  12
ATOM     12  C   THR A   6      20.163  -5.390  26.670  0.00  0.00    +0.243 C 
ATOM     13  N   VAL A   7      21.341  -4.788  26.594  0.00  0.00    -0.298 N 
ATOM     14  H   VAL A   7      21.958  -4.763  27.430  0.00  0.00    +0.150 HD
ATOM     15  O   THR A   6      19.353  -5.369  25.758  0.00  0.00    -0.273 OA
BRANCH  13  16
ATOM     16  CA  VAL A   7      21.780  -4.166  25.368  0.00  0.00    +0.137 C 
BRANCH  16  17
ATOM     17  CB  VAL A   7      22.837  -3.078  25.622  0.00  0.00    +0.026 C 
ATOM     18  CG2 VAL A   7      22.305  -2.036  26.593  0.00  0.00    +0.002 C 
ATOM     19  CG1 VAL A   7      23.231  -2.399  24.331  0.00  0.00    +0.002 C 
ENDBRANCH  16  17
BRANCH  16  20
ATOM     20  C   VAL A   7      22.391  -5.263  24.504  0.00  0.00    +0.227 C 
ATOM     21  O   VAL A   7      23.170  -6.090  24.988  0.00  0.00    -0.286 OA
ENDBRANCH  16  20
ENDBRANCH  13  16
ENDBRANCH  11  12
BRANCH  11  22
ATOM     22  CB  THR A   6      19.727  -7.606  27.825  0.00  0.00    +0.137 C 
ATOM     23  CG2 THR A   6      21.044  -8.229  27.493  0.00  0.00    +0.034 C 
BRANCH  22  24
ATOM     24  OG1 THR A   6      19.234  -8.184  29.035  0.00  0.00    -0.382 OA
ATOM     25  HG1 THR A   6      18.344  -7.804  29.242  0.00  0.00    +0.210 HD
ENDBRANCH  22  24
ENDBRANCH  11  22
ENDBRANCH   9  11
ENDBRANCH   6   7
ENDBRANCH   3   6
ENDBRANCH   1   2
BRANCH   1  28
ATOM     26  C   THR A   3      13.432  -4.972  33.578  0.00  0.00    +0.243 C 
ATOM     27  O   THR A   3      14.198  -4.265  34.193  0.00  0.00    -0.273 OA
ATOM     28  N   GLN A   4      13.779  -6.154  33.057  0.00  0.00    -0.297 N 
ATOM     29  H   GLN A   4      13.031  -6.806  32.748  0.00  0.00    +0.150 HD
BRANCH  26  30
ATOM     30  CA  THR A   3      11.997  -4.519  33.365  0.00  0.00    +0.176 C 
BRANCH  30  32
ATOM     31  C   GLU A   2      10.255  -4.539  35.089  0.00  0.00    +0.241 C 
ATOM     32  N   THR A   3      11.407  -4.058  34.624  0.00  0.00    -0.295 N 
ATOM     33  H   THR A   3      11.905  -3.329  35.174  0.00  0.00    +0.150 HD
ATOM     34  O   GLU A   2       9.620  -5.452  34.545  0.00  0.00    -0.273 OA
BRANCH  31  35
ATOM     35  CA  GLU A   2       9.696  -3.832  36.306  0.00  0.00    +0.149 C 
BRANCH  35  38
ATOM     36  C   LEU A   1       7.428  -2.954  36.593  0.00  0.00    +0.238 C 
ATOM     37  O   LEU A   1       7.813  -1.921  37.151  0.00  0.00    -0.274 OA
ATOM     38  N   GLU A   2       8.240  -3.945  36.243  0.00  0.00    -0.297 N 
ATOM     39  H   GLU A   2       7.823  -4.838  35.911  0.00  0.00    +0.150 HD
BRANCH  36  40
ATOM     40  CA  LEU A   1       5.945  -3.169  36.290  0.00  0.00    +0.145 C 
BRANCH  40  41
ATOM     41  N   LEU A   1       5.174  -2.087  36.869  0.00  0.00    -0.238 NA
ATOM     42  H   LEU A   1       5.621  -1.159  37.013  0.00  0.00    +0.142 HD
ENDBRANCH  40  41
BRANCH  40  43
ATOM     43  CB  LEU A   1       5.682  -3.278  34.779  0.00  0.00    +0.026 C 
BRANCH  43  44
ATOM     44  CG  LEU A   1       6.183  -2.168  33.868  0.00  0.00    +0.002 C 
ATOM     45  CD2 LEU A   1       5.382  -0.888  33.997  0.00  0.00    +0.000 C 
ATOM     46  CD1 LEU A   1       6.174  -2.622  32.385  0.00  0.00    +0.000 C 
ENDBRANCH  43  44
ENDBRANCH  40  43
ENDBRANCH  36  40
ENDBRANCH  35  38
BRANCH  35  47
ATOM     47  CB  GLU A   2      10.274  -4.430  37.598  0.00  0.00    +0.041 C 
BRANCH  47  48
ATOM     48  CG  GLU A   2      11.780  -4.301  37.693  0.00  0.00    +0.116 C 
BRANCH  48  49
ATOM     49  CD  GLU A   2      12.313  -4.475  39.099  0.00  0.00    +0.365 C 
ATOM     50  OE2 GLU A   2      12.026  -5.520  39.730  0.00  0.00    -0.246 OA
ATOM     51  OE1 GLU A   2      13.033  -3.568  39.566  0.00  0.00    -0.246 OA
ENDBRANCH  48  49
ENDBRANCH  47  48
ENDBRANCH  35  47
ENDBRANCH  31  35
ENDBRANCH  30  32
BRANCH  30  52
ATOM     52  CB  THR A   3      11.979  -3.379  32.330  0.00  0.00    +0.137 C 
ATOM     53  CG2 THR A   3      12.704  -3.745  31.056  0.00  0.00    +0.034 C 
BRANCH  52  54
ATOM     54  OG1 THR A   3      10.628  -3.056  32.018  0.00  0.00    -0.382 OA
ATOM     55  HG1 THR A   3      10.177  -3.854  31.644  0.00  0.00    +0.210 HD
ENDBRANCH  52  54
ENDBRANCH  30  52
ENDBRANCH  26  30
ENDBRANCH   1  28
BRANCH   1  56
ATOM     56  CB  GLN A   4      15.311  -8.077  33.050  0.00  0.00    +0.039 C 
BRANCH  56  57
ATOM     57  CG  GLN A   4      16.728  -8.601  32.957  0.00  0.00    +0.087 C 
BRANCH  57  58
ATOM     58  CD  GLN A   4      17.570  -8.127  34.117  0.00  0.00    +0.219 C 
ATOM     59  OE1 GLN A   4      17.066  -7.949  35.233  0.00  0.00    -0.275 OA
ATOM     60  NE2 GLN A   4      18.860  -7.919  33.867  0.00  0.00    -0.329 N 
ATOM     61 HE21 GLN A   4      19.491  -7.593  34.627  0.00  0.00    +0.145 HD
ATOM     62 HE22 GLN A   4      19.238  -8.083  32.912  0.00  0.00    +0.145 HD
ENDBRANCH  57  58
ENDBRANCH  56  57
ENDBRANCH   1  56
TORSDOF 27
REMARK  Name = ../refined-set-2016/4xt2/4xt2_pocket.pdb
REMARK  254 active torsions:
REMARK  status: ('A' for Active; 'I' for Inactive)
REMARK    1  A    between atoms: _1  and  _3
REMARK    2  A    between atoms: _3  and  _4
REMARK    3  A    between atoms: _3  and  _6
REMARK    4  A    between atoms: _6  and  _7
REMARK    5  A    between atoms: _13  and  _15
REMARK    6  A    between atoms: _15  and  _16
REMARK    7  A    between atoms: _15  and  _18
REMARK    8  A    between atoms: _18  and  _19
REMARK    9  A    between atoms: _22  and  _24
REMARK   10  A    between atoms: _24  and  _25
REMARK   11  A    between atoms: _24  and  _27
REMARK   12  A    between atoms: _27  and  _28
REMARK   13  A    between atoms: _30  and  _32
REMARK   14  A    between atoms: _32  and  _33
REMARK   15  A    between atoms: _32  and  _35
REMARK   16  A    between atoms: _35  and  _36
REMARK   17  A    between atoms: _36  and  _37
REMARK   18  A    between atoms: _40  and  _42
REMARK   19  A    between atoms: _42  and  _43
REMARK   20  A    between atoms: _42  and  _45
REMARK   21  A    between atoms: _45  and  _46
REMARK   22  A    between atoms: _51  and  _53
REMARK   23  A    between atoms: _53  and  _54
REMARK   24  A    between atoms: _53  and  _56
REMARK   25  A    between atoms: _56  and  _57
REMARK   26  A    between atoms: _59  and  _61
REMARK   27  A    between atoms: _61  and  _62
REMARK   28  A    between atoms: _61  and  _64
REMARK   29  A    between atoms: _64  and  _65
REMARK   30  A    between atoms: _65  and  _66
REMARK   31  A    between atoms: _68  and  _70
REMARK   32  A    between atoms: _70  and  _71
REMARK   33  A    between atoms: _70  and  _73
REMARK   34  A    between atoms: _73  and  _74
REMARK   35  A    between atoms: _77  and  _79
REMARK   36  A    between atoms: _79  and  _80
REMARK   37  A    between atoms: _79  and  _82
REMARK   38  A    between atoms: _82  and  _83
REMARK   39  A    between atoms: _83  and  _84
REMARK   40  A    between atoms: _86  and  _88
REMARK   41  A    between atoms: _88  and  _89
REMARK   42  A    between atoms: _88  and  _91
REMARK   43  A    between atoms: _91  and  _92
REMARK   44  A    between atoms: _92  and  _93
REMARK   45  A    between atoms: _93  and  _94
REMARK   46  A    between atoms: _94  and  _95
REMARK   47  A    between atoms: _99  and  _101
REMARK   48  A    between atoms: _101  and  _102
REMARK   49  A    between atoms: _101  and  _104
REMARK   50  A    between atoms: _104  and  _105
REMARK   51  A    between atoms: _111  and  _113
REMARK   52  A    between atoms: _113  and  _114
REMARK   53  A    between atoms: _113  and  _116
REMARK   54  A    between atoms: _116  and  _117
REMARK   55  A    between atoms: _120  and  _122
REMARK   56  A    between atoms: _122  and  _123
REMARK   57  A    between atoms: _122  and  _125
REMARK   58  A    between atoms: _125  and  _126
REMARK   59  A    between atoms: _131  and  _132
REMARK   60  A    between atoms: _134  and  _136
REMARK   61  A    between atoms: _136  and  _137
REMARK   62  A    between atoms: _136  and  _139
REMARK   63  A    between atoms: _141  and  _143
REMARK   64  A    between atoms: _143  and  _144
REMARK   65  A    between atoms: _143  and  _146
REMARK   66  A    between atoms: _146  and  _147
REMARK   67  A    between atoms: _150  and  _152
REMARK   68  A    between atoms: _152  and  _153
REMARK   69  A    between atoms: _152  and  _155
REMARK   70  A    between atoms: _155  and  _156
REMARK   71  A    between atoms: _159  and  _161
REMARK   72  A    between atoms: _161  and  _162
REMARK   73  A    between atoms: _161  and  _164
REMARK   74  A    between atoms: _164  and  _165
REMARK   75  A    between atoms: _170  and  _171
REMARK   76  A    between atoms: _173  and  _175
REMARK   77  A    between atoms: _175  and  _176
REMARK   78  A    between atoms: _175  and  _178
REMARK   79  A    between atoms: _178  and  _179
REMARK   80  A    between atoms: _182  and  _184
REMARK   81  A    between atoms: _184  and  _185
REMARK   82  A    between atoms: _184  and  _187
REMARK   83  A    between atoms: _187  and  _188
REMARK   84  A    between atoms: _188  and  _189
REMARK   85  A    between atoms: _189  and  _190
REMARK   86  A    between atoms: _199  and  _201
REMARK   87  A    between atoms: _201  and  _202
REMARK   88  A    between atoms: _201  and  _204
REMARK   89  A    between atoms: _204  and  _205
REMARK   90  A    between atoms: _207  and  _209
REMARK   91  A    between atoms: _209  and  _210
REMARK   92  A    between atoms: _213  and  _215
REMARK   93  A    between atoms: _215  and  _216
REMARK   94  A    between atoms: _215  and  _218
REMARK   95  A    between atoms: _218  and  _219
REMARK   96  A    between atoms: _224  and  _225
REMARK   97  A    between atoms: _227  and  _229
REMARK   98  A    between atoms: _229  and  _230
REMARK   99  A    between atoms: _229  and  _232
REMARK  100  A    between atoms: _232  and  _233
REMARK  101  A    between atoms: _233  and  _234
REMARK  102  A    between atoms: _237  and  _239
REMARK  103  A    between atoms: _239  and  _240
REMARK  104  A    between atoms: _239  and  _242
REMARK  105  A    between atoms: _242  and  _243
REMARK  106  A    between atoms: _249  and  _251
REMARK  107  A    between atoms: _251  and  _252
REMARK  108  A    between atoms: _251  and  _254
REMARK  109  A    between atoms: _254  and  _255
REMARK  110  A    between atoms: _260  and  _261
REMARK  111  A    between atoms: _263  and  _265
REMARK  112  A    between atoms: _265  and  _266
REMARK  113  A    between atoms: _265  and  _268
REMARK  114  A    between atoms: _268  and  _269
REMARK  115  A    between atoms: _274  and  _276
REMARK  116  A    between atoms: _276  and  _277
REMARK  117  A    between atoms: _276  and  _279
REMARK  118  A    between atoms: _279  and  _280
REMARK  119  A    between atoms: _285  and  _287
REMARK  120  A    between atoms: _287  and  _288
REMARK  121  A    between atoms: _287  and  _290
REMARK  122  A    between atoms: _290  and  _291
REMARK  123  A    between atoms: _291  and  _292
REMARK  124  A    between atoms: _294  and  _296
REMARK  125  A    between atoms: _296  and  _297
REMARK  126  A    between atoms: _296  and  _299
REMARK  127  A    between atoms: _299  and  _300
REMARK  128  A    between atoms: _303  and  _305
REMARK  129  A    between atoms: _305  and  _306
REMARK  130  A    between atoms: _305  and  _308
REMARK  131  A    between atoms: _308  and  _309
REMARK  132  A    between atoms: _309  and  _310
REMARK  133  A    between atoms: _310  and  _311
REMARK  134  A    between atoms: _311  and  _312
REMARK  135  A    between atoms: _316  and  _318
REMARK  136  A    between atoms: _318  and  _319
REMARK  137  A    between atoms: _318  and  _321
REMARK  138  A    between atoms: _321  and  _322
REMARK  139  A    between atoms: _324  and  _326
REMARK  140  A    between atoms: _326  and  _327
REMARK  141  A    between atoms: _326  and  _329
REMARK  142  A    between atoms: _329  and  _330
REMARK  143  A    between atoms: _335  and  _337
REMARK  144  A    between atoms: _337  and  _338
REMARK  145  A    between atoms: _337  and  _340
REMARK  146  A    between atoms: _340  and  _341
REMARK  147  A    between atoms: _341  and  _342
REMARK  148  A    between atoms: _347  and  _349
REMARK  149  A    between atoms: _349  and  _350
REMARK  150  A    between atoms: _349  and  _352
REMARK  151  A    between atoms: _352  and  _353
REMARK  152  A    between atoms: _358  and  _360
REMARK  153  A    between atoms: _360  and  _361
REMARK  154  A    between atoms: _360  and  _363
REMARK  155  A    between atoms: _363  and  _364
REMARK  156  A    between atoms: _367  and  _369
REMARK  157  A    between atoms: _369  and  _370
REMARK  158  A    between atoms: _369  and  _372
REMARK  159  A    between atoms: _374  and  _376
REMARK  160  A    between atoms: _376  and  _377
REMARK  161  A    between atoms: _379  and  _381
REMARK  162  A    between atoms: _381  and  _382
REMARK  163  A    between atoms: _381  and  _384
REMARK  164  A    between atoms: _384  and  _385
REMARK  165  A    between atoms: _385  and  _386
REMARK  166  A    between atoms: _391  and  _393
REMARK  167  A    between atoms: _393  and  _394
REMARK  168  A    between atoms: _393  and  _396
REMARK  169  A    between atoms: _399  and  _401
REMARK  170  A    between atoms: _401  and  _402
REMARK  171  A    between atoms: _401  and  _404
REMARK  172  A    between atoms: _407  and  _409
REMARK  173  A    between atoms: _409  and  _410
REMARK  174  A    between atoms: _409  and  _412
REMARK  175  A    between atoms: _412  and  _413
REMARK  176  A    between atoms: _415  and  _417
REMARK  177  A    between atoms: _417  and  _418
REMARK  178  A    between atoms: _420  and  _422
REMARK  179  A    between atoms: _422  and  _423
REMARK  180  A    between atoms: _422  and  _425
REMARK  181  A    between atoms: _425  and  _426
REMARK  182  A    between atoms: _431  and  _432
REMARK  183  A    between atoms: _434  and  _436
REMARK  184  A    between atoms: _436  and  _437
REMARK  185  A    between atoms: _436  and  _439
REMARK  186  A    between atoms: _439  and  _440
REMARK  187  A    between atoms: _440  and  _441
REMARK  188  A    between atoms: _441  and  _442
REMARK  189  A    between atoms: _451  and  _453
REMARK  190  A    between atoms: _453  and  _454
REMARK  191  A    between atoms: _453  and  _456
REMARK  192  A    between atoms: _456  and  _457
REMARK  193  A    between atoms: _457  and  _458
REMARK  194  A    between atoms: _460  and  _462
REMARK  195  A    between atoms: _462  and  _463
REMARK  196  A    between atoms: _462  and  _465
REMARK  197  A    between atoms: _465  and  _466
REMARK  198  A    between atoms: _469  and  _471
REMARK  199  A    between atoms: _471  and  _472
REMARK  200  A    between atoms: _471  and  _474
REMARK  201  A    between atoms: _477  and  _479
REMARK  202  A    between atoms: _479  and  _480
REMARK  203  A    between atoms: _479  and  _482
REMARK  204  A    between atoms: _482  and  _483
REMARK  205  A    between atoms: _486  and  _488
REMARK  206  A    between atoms: _488  and  _489
REMARK  207  A    between atoms: _488  and  _491
REMARK  208  A    between atoms: _491  and  _492
REMARK  209  A    between atoms: _492  and  _493
REMARK  210  A    between atoms: _496  and  _498
REMARK  211  A    between atoms: _498  and  _499
REMARK  212  A    between atoms: _498  and  _501
REMARK  213  A    between atoms: _501  and  _502
REMARK  214  A    between atoms: _505  and  _507
REMARK  215  A    between atoms: _507  and  _508
REMARK  216  A    between atoms: _507  and  _510
REMARK  217  A    between atoms: _510  and  _511
REMARK  218  A    between atoms: _511  and  _512
REMARK  219  A    between atoms: _517  and  _519
REMARK  220  A    between atoms: _519  and  _520
REMARK  221  A    between atoms: _522  and  _524
REMARK  222  A    between atoms: _524  and  _525
REMARK  223  A    between atoms: _524  and  _527
REMARK  224  A    between atoms: _527  and  _528
REMARK  225  A    between atoms: _531  and  _533
REMARK  226  A    between atoms: _533  and  _534
REMARK  227  A    between atoms: _533  and  _536
REMARK  228  A    between atoms: _539  and  _541
REMARK  229  A    between atoms: _541  and  _542
REMARK  230  A    between atoms: _541  and  _544
REMARK  231  A    between atoms: _546  and  _548
REMARK  232  A    between atoms: _548  and  _549
REMARK  233  A    between atoms: _548  and  _551
REMARK  234  A    between atoms: _551  and  _552
REMARK  235  A    between atoms: _555  and  _557
REMARK  236  A    between atoms: _557  and  _558
REMARK  237  A    between atoms: _557  and  _560
REMARK  238  A    between atoms: _560  and  _561
REMARK  239  A    between atoms: _561  and  _562
REMARK  240  A    between atoms: _564  and  _566
REMARK  241  A    between atoms: _566  and  _567
REMARK  242  A    between atoms: _566  and  _569
REMARK  243  A    between atoms: _571  and  _573
REMARK  244  A    between atoms: _573  and  _574
REMARK  245  A    between atoms: _573  and  _576
REMARK  246  A    between atoms: _579  and  _581
REMARK  247  A    between atoms: _581  and  _582
REMARK  248  A    between atoms: _581  and  _584
REMARK  249  A    between atoms: _584  and  _585
REMARK  250  A    between atoms: _590  and  _592
REMARK  251  A    between atoms: _592  and  _593
REMARK  252  A    between atoms: _592  and  _595
REMARK  253  A    between atoms: _595  and  _596
REMARK  254  A    between atoms: _601  and  _602
REMARK                            x       y       z     vdW  Elec       q    Type
REMARK                         _______ _______ _______ _____ _____    ______ ____
ROOT
ATOM      1  C   CYS A   4      12.590  -7.418  27.912  0.00  0.00    +0.242 C 
ATOM      2  N   VAL A   5      12.730  -7.878  29.150  0.00  0.00    -0.297 N 
ATOM      3  H   VAL A   5      13.550  -7.573  29.712  0.00  0.00    +0.150 HD
ATOM      4  O   CYS A   4      11.797  -7.901  27.085  0.00  0.00    -0.273 OA
ENDROOT
BRANCH   2   5
ATOM      5  CA  VAL A   5      11.772  -8.794  29.741  0.00  0.00    +0.149 C 
BRANCH   5   6
ATOM      6  C   VAL A   5      11.025  -7.974  30.787  0.00  0.00    +0.241 C 
ATOM      7  O   VAL A   5      11.618  -7.462  31.739  0.00  0.00    -0.273 OA
ATOM      8  N   ASN A   6       9.724  -7.817  30.572  0.00  0.00    -0.297 N 
ATOM      9  H   ASN A   6       9.269  -8.361  29.811  0.00  0.00    +0.150 HD
BRANCH   8  10
ATOM     10  CA  ASN A   6       8.910  -6.899  31.376  0.00  0.00    +0.158 C 
BRANCH  10  11
ATOM     11  C   ASN A   6       7.922  -7.716  32.166  0.00  0.00    +0.241 C 
ATOM     12  N   TYR A   7       7.829  -7.488  33.470  0.00  0.00    -0.298 N 
ATOM     13  H   TYR A   7       8.449  -6.790  33.929  0.00  0.00    +0.150 HD
ATOM     14  O   ASN A   6       7.241  -8.579  31.595  0.00  0.00    -0.273 OA
BRANCH  12  15
ATOM     15  CA  TYR A   7       6.843  -8.232  34.252  0.00  0.00    +0.141 C 
BRANCH  15  16
ATOM     16  C   TYR A   7       5.957  -7.260  35.001  0.00  0.00    +0.227 C 
ATOM     17  O   TYR A   7       6.440  -6.352  35.682  0.00  0.00    -0.286 OA
ENDBRANCH  15  16
BRANCH  15  18
ATOM     18  CB  TYR A   7       7.480  -9.278  35.194  0.00  0.00    +0.054 C 
BRANCH  18  19
ATOM     19  CG  TYR A   7       8.752  -8.866  35.893  0.00  0.00    -0.020 A 
ATOM     20  CD2 TYR A   7       8.733  -8.407  37.204  0.00  0.00    -0.001 A 
ATOM     21  CE2 TYR A   7       9.914  -8.034  37.849  0.00  0.00    +0.036 A 
ATOM     22  CZ  TYR A   7      11.117  -8.121  37.178  0.00  0.00    +0.134 A 
ATOM     23  CE1 TYR A   7      11.152  -8.580  35.876  0.00  0.00    +0.036 A 
ATOM     24  CD1 TYR A   7       9.985  -8.958  35.250  0.00  0.00    -0.001 A 
BRANCH  22  25
ATOM     25  OH  TYR A   7      12.295  -7.743  37.796  0.00  0.00    -0.506 OA
ATOM     26  HH  TYR A   7      12.100  -7.441  38.718  0.00  0.00    +0.292 HD
ENDBRANCH  22  25
ENDBRANCH  18  19
ENDBRANCH  15  18
ENDBRANCH  12  15
ENDBRANCH  10  11
BRANCH  10  27
ATOM     27  CB  ASN A   6       8.151  -5.921  30.475  0.00  0.00    +0.114 C 
BRANCH  27  28
ATOM     28  CG  ASN A   6       9.036  -5.247  29.482  0.00  0.00    +0.222 C 
ATOM     29  OD1 ASN A   6       9.881  -4.407  29.838  0.00  0.00    -0.275 OA
ATOM     30  ND2 ASN A   6       8.867  -5.610  28.200  0.00  0.00    -0.329 N 
ATOM     31 HD21 ASN A   6       8.147  -6.317  27.950  0.00  0.00    +0.145 HD
ATOM     32 HD22 ASN A   6       9.456  -5.184  27.457  0.00  0.00    +0.145 HD
ENDBRANCH  27  28
ENDBRANCH  10  27
ENDBRANCH   8  10
ENDBRANCH   5   6
BRANCH   5  33
ATOM     33  CB  VAL A   5      12.467 -10.008  30.388  0.00  0.00    +0.027 C 
ATOM     34  CG2 VAL A   5      11.426 -10.976  30.900  0.00  0.00    +0.002 C 
ATOM     35  CG1 VAL A   5      13.414 -10.699  29.363  0.00  0.00    +0.002 C 
ENDBRANCH   5  33
ENDBRANCH   2   5
BRANCH   1  36
ATOM     36  CA  CYS A   4      13.501  -6.261  27.568  0.00  0.00    +0.160 C 
BRANCH  36  39
ATOM     37  C   MET A   3      15.416  -6.302  26.062  0.00  0.00    +0.241 C 
ATOM     38  O   MET A   3      16.225  -6.194  26.991  0.00  0.00    -0.273 OA
ATOM     39  N   CYS A   4      14.102  -6.366  26.240  0.00  0.00    -0.296 N 
ATOM     40  H   CYS A   4      13.484  -6.494  25.413  0.00  0.00    +0.150 HD
BRANCH  37  41
ATOM     41  CA  MET A   3      15.901  -6.370  24.624  0.00  0.00    +0.149 C 
BRANCH  41  43
ATOM     42  C   ILE A   2      16.590  -4.146  23.812  0.00  0.00    +0.241 C 
ATOM     43  N   MET A   3      16.855  -5.286  24.450  0.00  0.00    -0.297 N 
ATOM     44  H   MET A   3      17.807  -5.408  24.850  0.00  0.00    +0.150 HD
ATOM     45  O   ILE A   2      15.524  -3.916  23.264  0.00  0.00    -0.273 OA
BRANCH  42  46
ATOM     46  CA  ILE A   2      17.725  -3.125  23.775  0.00  0.00    +0.148 C 
BRANCH  46  48
ATOM     47  C   CYS A   1      19.014  -2.937  21.714  0.00  0.00    +0.239 C 
ATOM     48  N   ILE A   2      17.912  -2.676  22.404  0.00  0.00    -0.297 N 
ATOM     49  H   ILE A   2      17.153  -2.130  21.948  0.00  0.00    +0.150 HD
ATOM     50  O   CYS A   1      20.023  -3.430  22.208  0.00  0.00    -0.274 OA
BRANCH  47  51
ATOM     51  CA  CYS A   1      18.986  -2.524  20.270  0.00  0.00    +0.156 C 
BRANCH  51  52
ATOM     52  CB  CYS A   1      17.978  -3.379  19.516  0.00  0.00    +0.095 C 
ATOM     53  SG  CYS A   1      18.272  -5.179  19.687  0.00  0.00    -0.080 S 
ENDBRANCH  51  52
BRANCH  51  54
ATOM     54  N   CYS A   1      20.317  -2.662  19.696  0.00  0.00    -0.237 NA
ATOM     55  H   CYS A   1      21.047  -3.198  20.207  0.00  0.00    +0.142 HD
ENDBRANCH  51  54
ENDBRANCH  47  51
ENDBRANCH  46  48
BRANCH  46  56
ATOM     56  CB  ILE A   2      17.421  -1.910  24.704  0.00  0.00    +0.027 C 
ATOM     57  CG2 ILE A   2      16.931  -2.369  26.060  0.00  0.00    +0.002 C 
BRANCH  56  58
ATOM     58  CG1 ILE A   2      18.692  -1.075  24.880  0.00  0.00    +0.002 C 
ATOM     59  CD1 ILE A   2      18.461   0.296  25.448  0.00  0.00    +0.000 C 
ENDBRANCH  56  58
ENDBRANCH  46  56
ENDBRANCH  42  46
ENDBRANCH  41  43
BRANCH  41  60
ATOM     60  CB  MET A   3      16.602  -7.711  24.438  0.00  0.00    +0.041 C 
BRANCH  60  61
ATOM     61  CG  MET A   3      15.665  -8.907  24.501  0.00  0.00    +0.060 C 
BRANCH  61  62
ATOM     62  SD  MET A   3      14.407  -8.917  23.206  0.00  0.00    -0.139 S 
ATOM     63  CE  MET A   3      15.299  -8.123  21.897  0.00  0.00    +0.069 C 
ENDBRANCH  61  62
ENDBRANCH  60  61
ENDBRANCH  41  60
ENDBRANCH  37  41
ENDBRANCH  36  39
BRANCH  36  64
ATOM     64  CB  CYS A   4      12.704  -4.969  27.690  0.00  0.00    +0.098 C 
ATOM     65  SG  CYS A   4      13.704  -3.509  27.650  0.00  0.00    -0.080 S 
ENDBRANCH  36  64
ENDBRANCH   1  36
TORSDOF 27
REMARK  Name = ../refined-set-2016/4xt2/4xt2_pocket.pdb
REMARK  254 active torsions:
REMARK  status: ('A' for Active; 'I' for Inactive)
REMARK    1  A    between atoms: _1  and  _3
REMARK    2  A    between atoms: _3  and  _4
REMARK    3  A    between atoms: _3  and  _6
REMARK    4  A    between atoms: _6  and  _7
REMARK    5  A    between atoms: _13  and  _15
REMARK    6  A    between atoms: _15  and  _16
REMARK    7  A    between atoms: _15  and  _18
REMARK    8  A    between atoms: _18  and  _19
REMARK    9  A    between atoms: _22  and  _24
REMARK   10  A    between atoms: _24  and  _25
REMARK   11  A    between atoms: _24  and  _27
REMARK   12  A    between atoms: _27  and  _28
REMARK   13  A    between atoms: _30  and  _32
REMARK   14  A    between atoms: _32  and  _33
REMARK   15  A    between atoms: _32  and  _35
REMARK   16  A    between atoms: _35  and  _36
REMARK   17  A    between atoms: _36  and  _37
REMARK   18  A    between atoms: _40  and  _42
REMARK   19  A    between atoms: _42  and  _43
REMARK   20  A    between atoms: _42  and  _45
REMARK   21  A    between atoms: _45  and  _46
REMARK   22  A    between atoms: _51  and  _53
REMARK   23  A    between atoms: _53  and  _54
REMARK   24  A    between atoms: _53  and  _56
REMARK   25  A    between atoms: _56  and  _57
REMARK   26  A    between atoms: _59  and  _61
REMARK   27  A    between atoms: _61  and  _62
REMARK   28  A    between atoms: _61  and  _64
REMARK   29  A    between atoms: _64  and  _65
REMARK   30  A    between atoms: _65  and  _66
REMARK   31  A    between atoms: _68  and  _70
REMARK   32  A    between atoms: _70  and  _71
REMARK   33  A    between atoms: _70  and  _73
REMARK   34  A    between atoms: _73  and  _74
REMARK   35  A    between atoms: _77  and  _79
REMARK   36  A    between atoms: _79  and  _80
REMARK   37  A    between atoms: _79  and  _82
REMARK   38  A    between atoms: _82  and  _83
REMARK   39  A    between atoms: _83  and  _84
REMARK   40  A    between atoms: _86  and  _88
REMARK   41  A    between atoms: _88  and  _89
REMARK   42  A    between atoms: _88  and  _91
REMARK   43  A    between atoms: _91  and  _92
REMARK   44  A    between atoms: _92  and  _93
REMARK   45  A    between atoms: _93  and  _94
REMARK   46  A    between atoms: _94  and  _95
REMARK   47  A    between atoms: _99  and  _101
REMARK   48  A    between atoms: _101  and  _102
REMARK   49  A    between atoms: _101  and  _104
REMARK   50  A    between atoms: _104  and  _105
REMARK   51  A    between atoms: _111  and  _113
REMARK   52  A    between atoms: _113  and  _114
REMARK   53  A    between atoms: _113  and  _116
REMARK   54  A    between atoms: _116  and  _117
REMARK   55  A    between atoms: _120  and  _122
REMARK   56  A    between atoms: _122  and  _123
REMARK   57  A    between atoms: _122  and  _125
REMARK   58  A    between atoms: _125  and  _126
REMARK   59  A    between atoms: _131  and  _132
REMARK   60  A    between atoms: _134  and  _136
REMARK   61  A    between atoms: _136  and  _137
REMARK   62  A    between atoms: _136  and  _139
REMARK   63  A    between atoms: _141  and  _143
REMARK   64  A    between atoms: _143  and  _144
REMARK   65  A    between atoms: _143  and  _146
REMARK   66  A    between atoms: _146  and  _147
REMARK   67  A    between atoms: _150  and  _152
REMARK   68  A    between atoms: _152  and  _153
REMARK   69  A    between atoms: _152  and  _155
REMARK   70  A    between atoms: _155  and  _156
REMARK   71  A    between atoms: _159  and  _161
REMARK   72  A    between atoms: _161  and  _162
REMARK   73  A    between atoms: _161  and  _164
REMARK   74  A    between atoms: _164  and  _165
REMARK   75  A    between atoms: _170  and  _171
REMARK   76  A    between atoms: _173  and  _175
REMARK   77  A    between atoms: _175  and  _176
REMARK   78  A    between atoms: _175  and  _178
REMARK   79  A    between atoms: _178  and  _179
REMARK   80  A    between atoms: _182  and  _184
REMARK   81  A    between atoms: _184  and  _185
REMARK   82  A    between atoms: _184  and  _187
REMARK   83  A    between atoms: _187  and  _188
REMARK   84  A    between atoms: _188  and  _189
REMARK   85  A    between atoms: _189  and  _190
REMARK   86  A    between atoms: _199  and  _201
REMARK   87  A    between atoms: _201  and  _202
REMARK   88  A    between atoms: _201  and  _204
REMARK   89  A    between atoms: _204  and  _205
REMARK   90  A    between atoms: _207  and  _209
REMARK   91  A    between atoms: _209  and  _210
REMARK   92  A    between atoms: _213  and  _215
REMARK   93  A    between atoms: _215  and  _216
REMARK   94  A    between atoms: _215  and  _218
REMARK   95  A    between atoms: _218  and  _219
REMARK   96  A    between atoms: _224  and  _225
REMARK   97  A    between atoms: _227  and  _229
REMARK   98  A    between atoms: _229  and  _230
REMARK   99  A    between atoms: _229  and  _232
REMARK  100  A    between atoms: _232  and  _233
REMARK  101  A    between atoms: _233  and  _234
REMARK  102  A    between atoms: _237  and  _239
REMARK  103  A    between atoms: _239  and  _240
REMARK  104  A    between atoms: _239  and  _242
REMARK  105  A    between atoms: _242  and  _243
REMARK  106  A    between atoms: _249  and  _251
REMARK  107  A    between atoms: _251  and  _252
REMARK  108  A    between atoms: _251  and  _254
REMARK  109  A    between atoms: _254  and  _255
REMARK  110  A    between atoms: _260  and  _261
REMARK  111  A    between atoms: _263  and  _265
REMARK  112  A    between atoms: _265  and  _266
REMARK  113  A    between atoms: _265  and  _268
REMARK  114  A    between atoms: _268  and  _269
REMARK  115  A    between atoms: _274  and  _276
REMARK  116  A    between atoms: _276  and  _277
REMARK  117  A    between atoms: _276  and  _279
REMARK  118  A    between atoms: _279  and  _280
REMARK  119  A    between atoms: _285  and  _287
REMARK  120  A    between atoms: _287  and  _288
REMARK  121  A    between atoms: _287  and  _290
REMARK  122  A    between atoms: _290  and  _291
REMARK  123  A    between atoms: _291  and  _292
REMARK  124  A    between atoms: _294  and  _296
REMARK  125  A    between atoms: _296  and  _297
REMARK  126  A    between atoms: _296  and  _299
REMARK  127  A    between atoms: _299  and  _300
REMARK  128  A    between atoms: _303  and  _305
REMARK  129  A    between atoms: _305  and  _306
REMARK  130  A    between atoms: _305  and  _308
REMARK  131  A    between atoms: _308  and  _309
REMARK  132  A    between atoms: _309  and  _310
REMARK  133  A    between atoms: _310  and  _311
REMARK  134  A    between atoms: _311  and  _312
REMARK  135  A    between atoms: _316  and  _318
REMARK  136  A    between atoms: _318  and  _319
REMARK  137  A    between atoms: _318  and  _321
REMARK  138  A    between atoms: _321  and  _322
REMARK  139  A    between atoms: _324  and  _326
REMARK  140  A    between atoms: _326  and  _327
REMARK  141  A    between atoms: _326  and  _329
REMARK  142  A    between atoms: _329  and  _330
REMARK  143  A    between atoms: _335  and  _337
REMARK  144  A    between atoms: _337  and  _338
REMARK  145  A    between atoms: _337  and  _340
REMARK  146  A    between atoms: _340  and  _341
REMARK  147  A    between atoms: _341  and  _342
REMARK  148  A    between atoms: _347  and  _349
REMARK  149  A    between atoms: _349  and  _350
REMARK  150  A    between atoms: _349  and  _352
REMARK  151  A    between atoms: _352  and  _353
REMARK  152  A    between atoms: _358  and  _360
REMARK  153  A    between atoms: _360  and  _361
REMARK  154  A    between atoms: _360  and  _363
REMARK  155  A    between atoms: _363  and  _364
REMARK  156  A    between atoms: _367  and  _369
REMARK  157  A    between atoms: _369  and  _370
REMARK  158  A    between atoms: _369  and  _372
REMARK  159  A    between atoms: _374  and  _376
REMARK  160  A    between atoms: _376  and  _377
REMARK  161  A    between atoms: _379  and  _381
REMARK  162  A    between atoms: _381  and  _382
REMARK  163  A    between atoms: _381  and  _384
REMARK  164  A    between atoms: _384  and  _385
REMARK  165  A    between atoms: _385  and  _386
REMARK  166  A    between atoms: _391  and  _393
REMARK  167  A    between atoms: _393  and  _394
REMARK  168  A    between atoms: _393  and  _396
REMARK  169  A    between atoms: _399  and  _401
REMARK  170  A    between atoms: _401  and  _402
REMARK  171  A    between atoms: _401  and  _404
REMARK  172  A    between atoms: _407  and  _409
REMARK  173  A    between atoms: _409  and  _410
REMARK  174  A    between atoms: _409  and  _412
REMARK  175  A    between atoms: _412  and  _413
REMARK  176  A    between atoms: _415  and  _417
REMARK  177  A    between atoms: _417  and  _418
REMARK  178  A    between atoms: _420  and  _422
REMARK  179  A    between atoms: _422  and  _423
REMARK  180  A    between atoms: _422  and  _425
REMARK  181  A    between atoms: _425  and  _426
REMARK  182  A    between atoms: _431  and  _432
REMARK  183  A    between atoms: _434  and  _436
REMARK  184  A    between atoms: _436  and  _437
REMARK  185  A    between atoms: _436  and  _439
REMARK  186  A    between atoms: _439  and  _440
REMARK  187  A    between atoms: _440  and  _441
REMARK  188  A    between atoms: _441  and  _442
REMARK  189  A    between atoms: _451  and  _453
REMARK  190  A    between atoms: _453  and  _454
REMARK  191  A    between atoms: _453  and  _456
REMARK  192  A    between atoms: _456  and  _457
REMARK  193  A    between atoms: _457  and  _458
REMARK  194  A    between atoms: _460  and  _462
REMARK  195  A    between atoms: _462  and  _463
REMARK  196  A    between atoms: _462  and  _465
REMARK  197  A    between atoms: _465  and  _466
REMARK  198  A    between atoms: _469  and  _471
REMARK  199  A    between atoms: _471  and  _472
REMARK  200  A    between atoms: _471  and  _474
REMARK  201  A    between atoms: _477  and  _479
REMARK  202  A    between atoms: _479  and  _480
REMARK  203  A    between atoms: _479  and  _482
REMARK  204  A    between atoms: _482  and  _483
REMARK  205  A    between atoms: _486  and  _488
REMARK  206  A    between atoms: _488  and  _489
REMARK  207  A    between atoms: _488  and  _491
REMARK  208  A    between atoms: _491  and  _492
REMARK  209  A    between atoms: _492  and  _493
REMARK  210  A    between atoms: _496  and  _498
REMARK  211  A    between atoms: _498  and  _499
REMARK  212  A    between atoms: _498  and  _501
REMARK  213  A    between atoms: _501  and  _502
REMARK  214  A    between atoms: _505  and  _507
REMARK  215  A    between atoms: _507  and  _508
REMARK  216  A    between atoms: _507  and  _510
REMARK  217  A    between atoms: _510  and  _511
REMARK  218  A    between atoms: _511  and  _512
REMARK  219  A    between atoms: _517  and  _519
REMARK  220  A    between atoms: _519  and  _520
REMARK  221  A    between atoms: _522  and  _524
REMARK  222  A    between atoms: _524  and  _525
REMARK  223  A    between atoms: _524  and  _527
REMARK  224  A    between atoms: _527  and  _528
REMARK  225  A    between atoms: _531  and  _533
REMARK  226  A    between atoms: _533  and  _534
REMARK  227  A    between atoms: _533  and  _536
REMARK  228  A    between atoms: _539  and  _541
REMARK  229  A    between atoms: _541  and  _542
REMARK  230  A    between atoms: _541  and  _544
REMARK  231  A    between atoms: _546  and  _548
REMARK  232  A    between atoms: _548  and  _549
REMARK  233  A    between atoms: _548  and  _551
REMARK  234  A    between atoms: _551  and  _552
REMARK  235  A    between atoms: _555  and  _557
REMARK  236  A    between atoms: _557  and  _558
REMARK  237  A    between atoms: _557  and  _560
REMARK  238  A    between atoms: _560  and  _561
REMARK  239  A    between atoms: _561  and  _562
REMARK  240  A    between atoms: _564  and  _566
REMARK  241  A    between atoms: _566  and  _567
REMARK  242  A    between atoms: _566  and  _569
REMARK  243  A    between atoms: _571  and  _573
REMARK  244  A    between atoms: _573  and  _574
REMARK  245  A    between atoms: _573  and  _576
REMARK  246  A    between atoms: _579  and  _581
REMARK  247  A    between atoms: _581  and  _582
REMARK  248  A    between atoms: _581  and  _584
REMARK  249  A    between atoms: _584  and  _585
REMARK  250  A    between atoms: _590  and  _592
REMARK  251  A    between atoms: _592  and  _593
REMARK  252  A    between atoms: _592  and  _595
REMARK  253  A    between atoms: _595  and  _596
REMARK  254  A    between atoms: _601  and  _602
REMARK                            x       y       z     vdW  Elec       q    Type
REMARK                         _______ _______ _______ _____ _____    ______ ____
ROOT
ATOM      1  O   HOH     1      12.369   8.550  22.798  0.00  0.00    +0.000 OA
ENDROOT
TORSDOF 0
REMARK  Name = ../refined-set-2016/4xt2/4xt2_pocket.pdb
REMARK  254 active torsions:
REMARK  status: ('A' for Active; 'I' for Inactive)
REMARK    1  A    between atoms: _1  and  _3
REMARK    2  A    between atoms: _3  and  _4
REMARK    3  A    between atoms: _3  and  _6
REMARK    4  A    between atoms: _6  and  _7
REMARK    5  A    between atoms: _13  and  _15
REMARK    6  A    between atoms: _15  and  _16
REMARK    7  A    between atoms: _15  and  _18
REMARK    8  A    between atoms: _18  and  _19
REMARK    9  A    between atoms: _22  and  _24
REMARK   10  A    between atoms: _24  and  _25
REMARK   11  A    between atoms: _24  and  _27
REMARK   12  A    between atoms: _27  and  _28
REMARK   13  A    between atoms: _30  and  _32
REMARK   14  A    between atoms: _32  and  _33
REMARK   15  A    between atoms: _32  and  _35
REMARK   16  A    between atoms: _35  and  _36
REMARK   17  A    between atoms: _36  and  _37
REMARK   18  A    between atoms: _40  and  _42
REMARK   19  A    between atoms: _42  and  _43
REMARK   20  A    between atoms: _42  and  _45
REMARK   21  A    between atoms: _45  and  _46
REMARK   22  A    between atoms: _51  and  _53
REMARK   23  A    between atoms: _53  and  _54
REMARK   24  A    between atoms: _53  and  _56
REMARK   25  A    between atoms: _56  and  _57
REMARK   26  A    between atoms: _59  and  _61
REMARK   27  A    between atoms: _61  and  _62
REMARK   28  A    between atoms: _61  and  _64
REMARK   29  A    between atoms: _64  and  _65
REMARK   30  A    between atoms: _65  and  _66
REMARK   31  A    between atoms: _68  and  _70
REMARK   32  A    between atoms: _70  and  _71
REMARK   33  A    between atoms: _70  and  _73
REMARK   34  A    between atoms: _73  and  _74
REMARK   35  A    between atoms: _77  and  _79
REMARK   36  A    between atoms: _79  and  _80
REMARK   37  A    between atoms: _79  and  _82
REMARK   38  A    between atoms: _82  and  _83
REMARK   39  A    between atoms: _83  and  _84
REMARK   40  A    between atoms: _86  and  _88
REMARK   41  A    between atoms: _88  and  _89
REMARK   42  A    between atoms: _88  and  _91
REMARK   43  A    between atoms: _91  and  _92
REMARK   44  A    between atoms: _92  and  _93
REMARK   45  A    between atoms: _93  and  _94
REMARK   46  A    between atoms: _94  and  _95
REMARK   47  A    between atoms: _99  and  _101
REMARK   48  A    between atoms: _101  and  _102
REMARK   49  A    between atoms: _101  and  _104
REMARK   50  A    between atoms: _104  and  _105
REMARK   51  A    between atoms: _111  and  _113
REMARK   52  A    between atoms: _113  and  _114
REMARK   53  A    between atoms: _113  and  _116
REMARK   54  A    between atoms: _116  and  _117
REMARK   55  A    between atoms: _120  and  _122
REMARK   56  A    between atoms: _122  and  _123
REMARK   57  A    between atoms: _122  and  _125
REMARK   58  A    between atoms: _125  and  _126
REMARK   59  A    between atoms: _131  and  _132
REMARK   60  A    between atoms: _134  and  _136
REMARK   61  A    between atoms: _136  and  _137
REMARK   62  A    between atoms: _136  and  _139
REMARK   63  A    between atoms: _141  and  _143
REMARK   64  A    between atoms: _143  and  _144
REMARK   65  A    between atoms: _143  and  _146
REMARK   66  A    between atoms: _146  and  _147
REMARK   67  A    between atoms: _150  and  _152
REMARK   68  A    between atoms: _152  and  _153
REMARK   69  A    between atoms: _152  and  _155
REMARK   70  A    between atoms: _155  and  _156
REMARK   71  A    between atoms: _159  and  _161
REMARK   72  A    between atoms: _161  and  _162
REMARK   73  A    between atoms: _161  and  _164
REMARK   74  A    between atoms: _164  and  _165
REMARK   75  A    between atoms: _170  and  _171
REMARK   76  A    between atoms: _173  and  _175
REMARK   77  A    between atoms: _175  and  _176
REMARK   78  A    between atoms: _175  and  _178
REMARK   79  A    between atoms: _178  and  _179
REMARK   80  A    between atoms: _182  and  _184
REMARK   81  A    between atoms: _184  and  _185
REMARK   82  A    between atoms: _184  and  _187
REMARK   83  A    between atoms: _187  and  _188
REMARK   84  A    between atoms: _188  and  _189
REMARK   85  A    between atoms: _189  and  _190
REMARK   86  A    between atoms: _199  and  _201
REMARK   87  A    between atoms: _201  and  _202
REMARK   88  A    between atoms: _201  and  _204
REMARK   89  A    between atoms: _204  and  _205
REMARK   90  A    between atoms: _207  and  _209
REMARK   91  A    between atoms: _209  and  _210
REMARK   92  A    between atoms: _213  and  _215
REMARK   93  A    between atoms: _215  and  _216
REMARK   94  A    between atoms: _215  and  _218
REMARK   95  A    between atoms: _218  and  _219
REMARK   96  A    between atoms: _224  and  _225
REMARK   97  A    between atoms: _227  and  _229
REMARK   98  A    between atoms: _229  and  _230
REMARK   99  A    between atoms: _229  and  _232
REMARK  100  A    between atoms: _232  and  _233
REMARK  101  A    between atoms: _233  and  _234
REMARK  102  A    between atoms: _237  and  _239
REMARK  103  A    between atoms: _239  and  _240
REMARK  104  A    between atoms: _239  and  _242
REMARK  105  A    between atoms: _242  and  _243
REMARK  106  A    between atoms: _249  and  _251
REMARK  107  A    between atoms: _251  and  _252
REMARK  108  A    between atoms: _251  and  _254
REMARK  109  A    between atoms: _254  and  _255
REMARK  110  A    between atoms: _260  and  _261
REMARK  111  A    between atoms: _263  and  _265
REMARK  112  A    between atoms: _265  and  _266
REMARK  113  A    between atoms: _265  and  _268
REMARK  114  A    between atoms: _268  and  _269
REMARK  115  A    between atoms: _274  and  _276
REMARK  116  A    between atoms: _276  and  _277
REMARK  117  A    between atoms: _276  and  _279
REMARK  118  A    between atoms: _279  and  _280
REMARK  119  A    between atoms: _285  and  _287
REMARK  120  A    between atoms: _287  and  _288
REMARK  121  A    between atoms: _287  and  _290
REMARK  122  A    between atoms: _290  and  _291
REMARK  123  A    between atoms: _291  and  _292
REMARK  124  A    between atoms: _294  and  _296
REMARK  125  A    between atoms: _296  and  _297
REMARK  126  A    between atoms: _296  and  _299
REMARK  127  A    between atoms: _299  and  _300
REMARK  128  A    between atoms: _303  and  _305
REMARK  129  A    between atoms: _305  and  _306
REMARK  130  A    between atoms: _305  and  _308
REMARK  131  A    between atoms: _308  and  _309
REMARK  132  A    between atoms: _309  and  _310
REMARK  133  A    between atoms: _310  and  _311
REMARK  134  A    between atoms: _311  and  _312
REMARK  135  A    between atoms: _316  and  _318
REMARK  136  A    between atoms: _318  and  _319
REMARK  137  A    between atoms: _318  and  _321
REMARK  138  A    between atoms: _321  and  _322
REMARK  139  A    between atoms: _324  and  _326
REMARK  140  A    between atoms: _326  and  _327
REMARK  141  A    between atoms: _326  and  _329
REMARK  142  A    between atoms: _329  and  _330
REMARK  143  A    between atoms: _335  and  _337
REMARK  144  A    between atoms: _337  and  _338
REMARK  145  A    between atoms: _337  and  _340
REMARK  146  A    between atoms: _340  and  _341
REMARK  147  A    between atoms: _341  and  _342
REMARK  148  A    between atoms: _347  and  _349
REMARK  149  A    between atoms: _349  and  _350
REMARK  150  A    between atoms: _349  and  _352
REMARK  151  A    between atoms: _352  and  _353
REMARK  152  A    between atoms: _358  and  _360
REMARK  153  A    between atoms: _360  and  _361
REMARK  154  A    between atoms: _360  and  _363
REMARK  155  A    between atoms: _363  and  _364
REMARK  156  A    between atoms: _367  and  _369
REMARK  157  A    between atoms: _369  and  _370
REMARK  158  A    between atoms: _369  and  _372
REMARK  159  A    between atoms: _374  and  _376
REMARK  160  A    between atoms: _376  and  _377
REMARK  161  A    between atoms: _379  and  _381
REMARK  162  A    between atoms: _381  and  _382
REMARK  163  A    between atoms: _381  and  _384
REMARK  164  A    between atoms: _384  and  _385
REMARK  165  A    between atoms: _385  and  _386
REMARK  166  A    between atoms: _391  and  _393
REMARK  167  A    between atoms: _393  and  _394
REMARK  168  A    between atoms: _393  and  _396
REMARK  169  A    between atoms: _399  and  _401
REMARK  170  A    between atoms: _401  and  _402
REMARK  171  A    between atoms: _401  and  _404
REMARK  172  A    between atoms: _407  and  _409
REMARK  173  A    between atoms: _409  and  _410
REMARK  174  A    between atoms: _409  and  _412
REMARK  175  A    between atoms: _412  and  _413
REMARK  176  A    between atoms: _415  and  _417
REMARK  177  A    between atoms: _417  and  _418
REMARK  178  A    between atoms: _420  and  _422
REMARK  179  A    between atoms: _422  and  _423
REMARK  180  A    between atoms: _422  and  _425
REMARK  181  A    between atoms: _425  and  _426
REMARK  182  A    between atoms: _431  and  _432
REMARK  183  A    between atoms: _434  and  _436
REMARK  184  A    between atoms: _436  and  _437
REMARK  185  A    between atoms: _436  and  _439
REMARK  186  A    between atoms: _439  and  _440
REMARK  187  A    between atoms: _440  and  _441
REMARK  188  A    between atoms: _441  and  _442
REMARK  189  A    between atoms: _451  and  _453
REMARK  190  A    between atoms: _453  and  _454
REMARK  191  A    between atoms: _453  and  _456
REMARK  192  A    between atoms: _456  and  _457
REMARK  193  A    between atoms: _457  and  _458
REMARK  194  A    between atoms: _460  and  _462
REMARK  195  A    between atoms: _462  and  _463
REMARK  196  A    between atoms: _462  and  _465
REMARK  197  A    between atoms: _465  and  _466
REMARK  198  A    between atoms: _469  and  _471
REMARK  199  A    between atoms: _471  and  _472
REMARK  200  A    between atoms: _471  and  _474
REMARK  201  A    between atoms: _477  and  _479
REMARK  202  A    between atoms: _479  and  _480
REMARK  203  A    between atoms: _479  and  _482
REMARK  204  A    between atoms: _482  and  _483
REMARK  205  A    between atoms: _486  and  _488
REMARK  206  A    between atoms: _488  and  _489
REMARK  207  A    between atoms: _488  and  _491
REMARK  208  A    between atoms: _491  and  _492
REMARK  209  A    between atoms: _492  and  _493
REMARK  210  A    between atoms: _496  and  _498
REMARK  211  A    between atoms: _498  and  _499
REMARK  212  A    between atoms: _498  and  _501
REMARK  213  A    between atoms: _501  and  _502
REMARK  214  A    between atoms: _505  and  _507
REMARK  215  A    between atoms: _507  and  _508
REMARK  216  A    between atoms: _507  and  _510
REMARK  217  A    between atoms: _510  and  _511
REMARK  218  A    between atoms: _511  and  _512
REMARK  219  A    between atoms: _517  and  _519
REMARK  220  A    between atoms: _519  and  _520
REMARK  221  A    between atoms: _522  and  _524
REMARK  222  A    between atoms: _524  and  _525
REMARK  223  A    between atoms: _524  and  _527
REMARK  224  A    between atoms: _527  and  _528
REMARK  225  A    between atoms: _531  and  _533
REMARK  226  A    between atoms: _533  and  _534
REMARK  227  A    between atoms: _533  and  _536
REMARK  228  A    between atoms: _539  and  _541
REMARK  229  A    between atoms: _541  and  _542
REMARK  230  A    between atoms: _541  and  _544
REMARK  231  A    between atoms: _546  and  _548
REMARK  232  A    between atoms: _548  and  _549
REMARK  233  A    between atoms: _548  and  _551
REMARK  234  A    between atoms: _551  and  _552
REMARK  235  A    between atoms: _555  and  _557
REMARK  236  A    between atoms: _557  and  _558
REMARK  237  A    between atoms: _557  and  _560
REMARK  238  A    between atoms: _560  and  _561
REMARK  239  A    between atoms: _561  and  _562
REMARK  240  A    between atoms: _564  and  _566
REMARK  241  A    between atoms: _566  and  _567
REMARK  242  A    between atoms: _566  and  _569
REMARK  243  A    between atoms: _571  and  _573
REMARK  244  A    between atoms: _573  and  _574
REMARK  245  A    between atoms: _573  and  _576
REMARK  246  A    between atoms: _579  and  _581
REMARK  247  A    between atoms: _581  and  _582
REMARK  248  A    between atoms: _581  and  _584
REMARK  249  A    between atoms: _584  and  _585
REMARK  250  A    between atoms: _590  and  _592
REMARK  251  A    between atoms: _592  and  _593
REMARK  252  A    between atoms: _592  and  _595
REMARK  253  A    between atoms: _595  and  _596
REMARK  254  A    between atoms: _601  and  _602
REMARK                            x       y       z     vdW  Elec       q    Type
REMARK                         _______ _______ _______ _____ _____    ______ ____
ROOT
ATOM      1  O   HOH     1      16.730   2.838  24.334  0.00  0.00    +0.000 OA
ENDROOT
TORSDOF 0
REMARK  Name = ../refined-set-2016/4xt2/4xt2_pocket.pdb
REMARK  254 active torsions:
REMARK  status: ('A' for Active; 'I' for Inactive)
REMARK    1  A    between atoms: _1  and  _3
REMARK    2  A    between atoms: _3  and  _4
REMARK    3  A    between atoms: _3  and  _6
REMARK    4  A    between atoms: _6  and  _7
REMARK    5  A    between atoms: _13  and  _15
REMARK    6  A    between atoms: _15  and  _16
REMARK    7  A    between atoms: _15  and  _18
REMARK    8  A    between atoms: _18  and  _19
REMARK    9  A    between atoms: _22  and  _24
REMARK   10  A    between atoms: _24  and  _25
REMARK   11  A    between atoms: _24  and  _27
REMARK   12  A    between atoms: _27  and  _28
REMARK   13  A    between atoms: _30  and  _32
REMARK   14  A    between atoms: _32  and  _33
REMARK   15  A    between atoms: _32  and  _35
REMARK   16  A    between atoms: _35  and  _36
REMARK   17  A    between atoms: _36  and  _37
REMARK   18  A    between atoms: _40  and  _42
REMARK   19  A    between atoms: _42  and  _43
REMARK   20  A    between atoms: _42  and  _45
REMARK   21  A    between atoms: _45  and  _46
REMARK   22  A    between atoms: _51  and  _53
REMARK   23  A    between atoms: _53  and  _54
REMARK   24  A    between atoms: _53  and  _56
REMARK   25  A    between atoms: _56  and  _57
REMARK   26  A    between atoms: _59  and  _61
REMARK   27  A    between atoms: _61  and  _62
REMARK   28  A    between atoms: _61  and  _64
REMARK   29  A    between atoms: _64  and  _65
REMARK   30  A    between atoms: _65  and  _66
REMARK   31  A    between atoms: _68  and  _70
REMARK   32  A    between atoms: _70  and  _71
REMARK   33  A    between atoms: _70  and  _73
REMARK   34  A    between atoms: _73  and  _74
REMARK   35  A    between atoms: _77  and  _79
REMARK   36  A    between atoms: _79  and  _80
REMARK   37  A    between atoms: _79  and  _82
REMARK   38  A    between atoms: _82  and  _83
REMARK   39  A    between atoms: _83  and  _84
REMARK   40  A    between atoms: _86  and  _88
REMARK   41  A    between atoms: _88  and  _89
REMARK   42  A    between atoms: _88  and  _91
REMARK   43  A    between atoms: _91  and  _92
REMARK   44  A    between atoms: _92  and  _93
REMARK   45  A    between atoms: _93  and  _94
REMARK   46  A    between atoms: _94  and  _95
REMARK   47  A    between atoms: _99  and  _101
REMARK   48  A    between atoms: _101  and  _102
REMARK   49  A    between atoms: _101  and  _104
REMARK   50  A    between atoms: _104  and  _105
REMARK   51  A    between atoms: _111  and  _113
REMARK   52  A    between atoms: _113  and  _114
REMARK   53  A    between atoms: _113  and  _116
REMARK   54  A    between atoms: _116  and  _117
REMARK   55  A    between atoms: _120  and  _122
REMARK   56  A    between atoms: _122  and  _123
REMARK   57  A    between atoms: _122  and  _125
REMARK   58  A    between atoms: _125  and  _126
REMARK   59  A    between atoms: _131  and  _132
REMARK   60  A    between atoms: _134  and  _136
REMARK   61  A    between atoms: _136  and  _137
REMARK   62  A    between atoms: _136  and  _139
REMARK   63  A    between atoms: _141  and  _143
REMARK   64  A    between atoms: _143  and  _144
REMARK   65  A    between atoms: _143  and  _146
REMARK   66  A    between atoms: _146  and  _147
REMARK   67  A    between atoms: _150  and  _152
REMARK   68  A    between atoms: _152  and  _153
REMARK   69  A    between atoms: _152  and  _155
REMARK   70  A    between atoms: _155  and  _156
REMARK   71  A    between atoms: _159  and  _161
REMARK   72  A    between atoms: _161  and  _162
REMARK   73  A    between atoms: _161  and  _164
REMARK   74  A    between atoms: _164  and  _165
REMARK   75  A    between atoms: _170  and  _171
REMARK   76  A    between atoms: _173  and  _175
REMARK   77  A    between atoms: _175  and  _176
REMARK   78  A    between atoms: _175  and  _178
REMARK   79  A    between atoms: _178  and  _179
REMARK   80  A    between atoms: _182  and  _184
REMARK   81  A    between atoms: _184  and  _185
REMARK   82  A    between atoms: _184  and  _187
REMARK   83  A    between atoms: _187  and  _188
REMARK   84  A    between atoms: _188  and  _189
REMARK   85  A    between atoms: _189  and  _190
REMARK   86  A    between atoms: _199  and  _201
REMARK   87  A    between atoms: _201  and  _202
REMARK   88  A    between atoms: _201  and  _204
REMARK   89  A    between atoms: _204  and  _205
REMARK   90  A    between atoms: _207  and  _209
REMARK   91  A    between atoms: _209  and  _210
REMARK   92  A    between atoms: _213  and  _215
REMARK   93  A    between atoms: _215  and  _216
REMARK   94  A    between atoms: _215  and  _218
REMARK   95  A    between atoms: _218  and  _219
REMARK   96  A    between atoms: _224  and  _225
REMARK   97  A    between atoms: _227  and  _229
REMARK   98  A    between atoms: _229  and  _230
REMARK   99  A    between atoms: _229  and  _232
REMARK  100  A    between atoms: _232  and  _233
REMARK  101  A    between atoms: _233  and  _234
REMARK  102  A    between atoms: _237  and  _239
REMARK  103  A    between atoms: _239  and  _240
REMARK  104  A    between atoms: _239  and  _242
REMARK  105  A    between atoms: _242  and  _243
REMARK  106  A    between atoms: _249  and  _251
REMARK  107  A    between atoms: _251  and  _252
REMARK  108  A    between atoms: _251  and  _254
REMARK  109  A    between atoms: _254  and  _255
REMARK  110  A    between atoms: _260  and  _261
REMARK  111  A    between atoms: _263  and  _265
REMARK  112  A    between atoms: _265  and  _266
REMARK  113  A    between atoms: _265  and  _268
REMARK  114  A    between atoms: _268  and  _269
REMARK  115  A    between atoms: _274  and  _276
REMARK  116  A    between atoms: _276  and  _277
REMARK  117  A    between atoms: _276  and  _279
REMARK  118  A    between atoms: _279  and  _280
REMARK  119  A    between atoms: _285  and  _287
REMARK  120  A    between atoms: _287  and  _288
REMARK  121  A    between atoms: _287  and  _290
REMARK  122  A    between atoms: _290  and  _291
REMARK  123  A    between atoms: _291  and  _292
REMARK  124  A    between atoms: _294  and  _296
REMARK  125  A    between atoms: _296  and  _297
REMARK  126  A    between atoms: _296  and  _299
REMARK  127  A    between atoms: _299  and  _300
REMARK  128  A    between atoms: _303  and  _305
REMARK  129  A    between atoms: _305  and  _306
REMARK  130  A    between atoms: _305  and  _308
REMARK  131  A    between atoms: _308  and  _309
REMARK  132  A    between atoms: _309  and  _310
REMARK  133  A    between atoms: _310  and  _311
REMARK  134  A    between atoms: _311  and  _312
REMARK  135  A    between atoms: _316  and  _318
REMARK  136  A    between atoms: _318  and  _319
REMARK  137  A    between atoms: _318  and  _321
REMARK  138  A    between atoms: _321  and  _322
REMARK  139  A    between atoms: _324  and  _326
REMARK  140  A    between atoms: _326  and  _327
REMARK  141  A    between atoms: _326  and  _329
REMARK  142  A    between atoms: _329  and  _330
REMARK  143  A    between atoms: _335  and  _337
REMARK  144  A    between atoms: _337  and  _338
REMARK  145  A    between atoms: _337  and  _340
REMARK  146  A    between atoms: _340  and  _341
REMARK  147  A    between atoms: _341  and  _342
REMARK  148  A    between atoms: _347  and  _349
REMARK  149  A    between atoms: _349  and  _350
REMARK  150  A    between atoms: _349  and  _352
REMARK  151  A    between atoms: _352  and  _353
REMARK  152  A    between atoms: _358  and  _360
REMARK  153  A    between atoms: _360  and  _361
REMARK  154  A    between atoms: _360  and  _363
REMARK  155  A    between atoms: _363  and  _364
REMARK  156  A    between atoms: _367  and  _369
REMARK  157  A    between atoms: _369  and  _370
REMARK  158  A    between atoms: _369  and  _372
REMARK  159  A    between atoms: _374  and  _376
REMARK  160  A    between atoms: _376  and  _377
REMARK  161  A    between atoms: _379  and  _381
REMARK  162  A    between atoms: _381  and  _382
REMARK  163  A    between atoms: _381  and  _384
REMARK  164  A    between atoms: _384  and  _385
REMARK  165  A    between atoms: _385  and  _386
REMARK  166  A    between atoms: _391  and  _393
REMARK  167  A    between atoms: _393  and  _394
REMARK  168  A    between atoms: _393  and  _396
REMARK  169  A    between atoms: _399  and  _401
REMARK  170  A    between atoms: _401  and  _402
REMARK  171  A    between atoms: _401  and  _404
REMARK  172  A    between atoms: _407  and  _409
REMARK  173  A    between atoms: _409  and  _410
REMARK  174  A    between atoms: _409  and  _412
REMARK  175  A    between atoms: _412  and  _413
REMARK  176  A    between atoms: _415  and  _417
REMARK  177  A    between atoms: _417  and  _418
REMARK  178  A    between atoms: _420  and  _422
REMARK  179  A    between atoms: _422  and  _423
REMARK  180  A    between atoms: _422  and  _425
REMARK  181  A    between atoms: _425  and  _426
REMARK  182  A    between atoms: _431  and  _432
REMARK  183  A    between atoms: _434  and  _436
REMARK  184  A    between atoms: _436  and  _437
REMARK  185  A    between atoms: _436  and  _439
REMARK  186  A    between atoms: _439  and  _440
REMARK  187  A    between atoms: _440  and  _441
REMARK  188  A    between atoms: _441  and  _442
REMARK  189  A    between atoms: _451  and  _453
REMARK  190  A    between atoms: _453  and  _454
REMARK  191  A    between atoms: _453  and  _456
REMARK  192  A    between atoms: _456  and  _457
REMARK  193  A    between atoms: _457  and  _458
REMARK  194  A    between atoms: _460  and  _462
REMARK  195  A    between atoms: _462  and  _463
REMARK  196  A    between atoms: _462  and  _465
REMARK  197  A    between atoms: _465  and  _466
REMARK  198  A    between atoms: _469  and  _471
REMARK  199  A    between atoms: _471  and  _472
REMARK  200  A    between atoms: _471  and  _474
REMARK  201  A    between atoms: _477  and  _479
REMARK  202  A    between atoms: _479  and  _480
REMARK  203  A    between atoms: _479  and  _482
REMARK  204  A    between atoms: _482  and  _483
REMARK  205  A    between atoms: _486  and  _488
REMARK  206  A    between atoms: _488  and  _489
REMARK  207  A    between atoms: _488  and  _491
REMARK  208  A    between atoms: _491  and  _492
REMARK  209  A    between atoms: _492  and  _493
REMARK  210  A    between atoms: _496  and  _498
REMARK  211  A    between atoms: _498  and  _499
REMARK  212  A    between atoms: _498  and  _501
REMARK  213  A    between atoms: _501  and  _502
REMARK  214  A    between atoms: _505  and  _507
REMARK  215  A    between atoms: _507  and  _508
REMARK  216  A    between atoms: _507  and  _510
REMARK  217  A    between atoms: _510  and  _511
REMARK  218  A    between atoms: _511  and  _512
REMARK  219  A    between atoms: _517  and  _519
REMARK  220  A    between atoms: _519  and  _520
REMARK  221  A    between atoms: _522  and  _524
REMARK  222  A    between atoms: _524  and  _525
REMARK  223  A    between atoms: _524  and  _527
REMARK  224  A    between atoms: _527  and  _528
REMARK  225  A    between atoms: _531  and  _533
REMARK  226  A    between atoms: _533  and  _534
REMARK  227  A    between atoms: _533  and  _536
REMARK  228  A    between atoms: _539  and  _541
REMARK  229  A    between atoms: _541  and  _542
REMARK  230  A    between atoms: _541  and  _544
REMARK  231  A    between atoms: _546  and  _548
REMARK  232  A    between atoms: _548  and  _549
REMARK  233  A    between atoms: _548  and  _551
REMARK  234  A    between atoms: _551  and  _552
REMARK  235  A    between atoms: _555  and  _557
REMARK  236  A    between atoms: _557  and  _558
REMARK  237  A    between atoms: _557  and  _560
REMARK  238  A    between atoms: _560  and  _561
REMARK  239  A    between atoms: _561  and  _562
REMARK  240  A    between atoms: _564  and  _566
REMARK  241  A    between atoms: _566  and  _567
REMARK  242  A    between atoms: _566  and  _569
REMARK  243  A    between atoms: _571  and  _573
REMARK  244  A    between atoms: _573  and  _574
REMARK  245  A    between atoms: _573  and  _576
REMARK  246  A    between atoms: _579  and  _581
REMARK  247  A    between atoms: _581  and  _582
REMARK  248  A    between atoms: _581  and  _584
REMARK  249  A    between atoms: _584  and  _585
REMARK  250  A    between atoms: _590  and  _592
REMARK  251  A    between atoms: _592  and  _593
REMARK  252  A    between atoms: _592  and  _595
REMARK  253  A    between atoms: _595  and  _596
REMARK  254  A    between atoms: _601  and  _602
REMARK                            x       y       z     vdW  Elec       q    Type
REMARK                         _______ _______ _______ _____ _____    ______ ____
ROOT
ATOM      1  O   HOH     1       6.537  10.052  30.544  0.00  0.00    +0.000 OA
ENDROOT
TORSDOF 0
REMARK  Name = ../refined-set-2016/4xt2/4xt2_pocket.pdb
REMARK  254 active torsions:
REMARK  status: ('A' for Active; 'I' for Inactive)
REMARK    1  A    between atoms: _1  and  _3
REMARK    2  A    between atoms: _3  and  _4
REMARK    3  A    between atoms: _3  and  _6
REMARK    4  A    between atoms: _6  and  _7
REMARK    5  A    between atoms: _13  and  _15
REMARK    6  A    between atoms: _15  and  _16
REMARK    7  A    between atoms: _15  and  _18
REMARK    8  A    between atoms: _18  and  _19
REMARK    9  A    between atoms: _22  and  _24
REMARK   10  A    between atoms: _24  and  _25
REMARK   11  A    between atoms: _24  and  _27
REMARK   12  A    between atoms: _27  and  _28
REMARK   13  A    between atoms: _30  and  _32
REMARK   14  A    between atoms: _32  and  _33
REMARK   15  A    between atoms: _32  and  _35
REMARK   16  A    between atoms: _35  and  _36
REMARK   17  A    between atoms: _36  and  _37
REMARK   18  A    between atoms: _40  and  _42
REMARK   19  A    between atoms: _42  and  _43
REMARK   20  A    between atoms: _42  and  _45
REMARK   21  A    between atoms: _45  and  _46
REMARK   22  A    between atoms: _51  and  _53
REMARK   23  A    between atoms: _53  and  _54
REMARK   24  A    between atoms: _53  and  _56
REMARK   25  A    between atoms: _56  and  _57
REMARK   26  A    between atoms: _59  and  _61
REMARK   27  A    between atoms: _61  and  _62
REMARK   28  A    between atoms: _61  and  _64
REMARK   29  A    between atoms: _64  and  _65
REMARK   30  A    between atoms: _65  and  _66
REMARK   31  A    between atoms: _68  and  _70
REMARK   32  A    between atoms: _70  and  _71
REMARK   33  A    between atoms: _70  and  _73
REMARK   34  A    between atoms: _73  and  _74
REMARK   35  A    between atoms: _77  and  _79
REMARK   36  A    between atoms: _79  and  _80
REMARK   37  A    between atoms: _79  and  _82
REMARK   38  A    between atoms: _82  and  _83
REMARK   39  A    between atoms: _83  and  _84
REMARK   40  A    between atoms: _86  and  _88
REMARK   41  A    between atoms: _88  and  _89
REMARK   42  A    between atoms: _88  and  _91
REMARK   43  A    between atoms: _91  and  _92
REMARK   44  A    between atoms: _92  and  _93
REMARK   45  A    between atoms: _93  and  _94
REMARK   46  A    between atoms: _94  and  _95
REMARK   47  A    between atoms: _99  and  _101
REMARK   48  A    between atoms: _101  and  _102
REMARK   49  A    between atoms: _101  and  _104
REMARK   50  A    between atoms: _104  and  _105
REMARK   51  A    between atoms: _111  and  _113
REMARK   52  A    between atoms: _113  and  _114
REMARK   53  A    between atoms: _113  and  _116
REMARK   54  A    between atoms: _116  and  _117
REMARK   55  A    between atoms: _120  and  _122
REMARK   56  A    between atoms: _122  and  _123
REMARK   57  A    between atoms: _122  and  _125
REMARK   58  A    between atoms: _125  and  _126
REMARK   59  A    between atoms: _131  and  _132
REMARK   60  A    between atoms: _134  and  _136
REMARK   61  A    between atoms: _136  and  _137
REMARK   62  A    between atoms: _136  and  _139
REMARK   63  A    between atoms: _141  and  _143
REMARK   64  A    between atoms: _143  and  _144
REMARK   65  A    between atoms: _143  and  _146
REMARK   66  A    between atoms: _146  and  _147
REMARK   67  A    between atoms: _150  and  _152
REMARK   68  A    between atoms: _152  and  _153
REMARK   69  A    between atoms: _152  and  _155
REMARK   70  A    between atoms: _155  and  _156
REMARK   71  A    between atoms: _159  and  _161
REMARK   72  A    between atoms: _161  and  _162
REMARK   73  A    between atoms: _161  and  _164
REMARK   74  A    between atoms: _164  and  _165
REMARK   75  A    between atoms: _170  and  _171
REMARK   76  A    between atoms: _173  and  _175
REMARK   77  A    between atoms: _175  and  _176
REMARK   78  A    between atoms: _175  and  _178
REMARK   79  A    between atoms: _178  and  _179
REMARK   80  A    between atoms: _182  and  _184
REMARK   81  A    between atoms: _184  and  _185
REMARK   82  A    between atoms: _184  and  _187
REMARK   83  A    between atoms: _187  and  _188
REMARK   84  A    between atoms: _188  and  _189
REMARK   85  A    between atoms: _189  and  _190
REMARK   86  A    between atoms: _199  and  _201
REMARK   87  A    between atoms: _201  and  _202
REMARK   88  A    between atoms: _201  and  _204
REMARK   89  A    between atoms: _204  and  _205
REMARK   90  A    between atoms: _207  and  _209
REMARK   91  A    between atoms: _209  and  _210
REMARK   92  A    between atoms: _213  and  _215
REMARK   93  A    between atoms: _215  and  _216
REMARK   94  A    between atoms: _215  and  _218
REMARK   95  A    between atoms: _218  and  _219
REMARK   96  A    between atoms: _224  and  _225
REMARK   97  A    between atoms: _227  and  _229
REMARK   98  A    between atoms: _229  and  _230
REMARK   99  A    between atoms: _229  and  _232
REMARK  100  A    between atoms: _232  and  _233
REMARK  101  A    between atoms: _233  and  _234
REMARK  102  A    between atoms: _237  and  _239
REMARK  103  A    between atoms: _239  and  _240
REMARK  104  A    between atoms: _239  and  _242
REMARK  105  A    between atoms: _242  and  _243
REMARK  106  A    between atoms: _249  and  _251
REMARK  107  A    between atoms: _251  and  _252
REMARK  108  A    between atoms: _251  and  _254
REMARK  109  A    between atoms: _254  and  _255
REMARK  110  A    between atoms: _260  and  _261
REMARK  111  A    between atoms: _263  and  _265
REMARK  112  A    between atoms: _265  and  _266
REMARK  113  A    between atoms: _265  and  _268
REMARK  114  A    between atoms: _268  and  _269
REMARK  115  A    between atoms: _274  and  _276
REMARK  116  A    between atoms: _276  and  _277
REMARK  117  A    between atoms: _276  and  _279
REMARK  118  A    between atoms: _279  and  _280
REMARK  119  A    between atoms: _285  and  _287
REMARK  120  A    between atoms: _287  and  _288
REMARK  121  A    between atoms: _287  and  _290
REMARK  122  A    between atoms: _290  and  _291
REMARK  123  A    between atoms: _291  and  _292
REMARK  124  A    between atoms: _294  and  _296
REMARK  125  A    between atoms: _296  and  _297
REMARK  126  A    between atoms: _296  and  _299
REMARK  127  A    between atoms: _299  and  _300
REMARK  128  A    between atoms: _303  and  _305
REMARK  129  A    between atoms: _305  and  _306
REMARK  130  A    between atoms: _305  and  _308
REMARK  131  A    between atoms: _308  and  _309
REMARK  132  A    between atoms: _309  and  _310
REMARK  133  A    between atoms: _310  and  _311
REMARK  134  A    between atoms: _311  and  _312
REMARK  135  A    between atoms: _316  and  _318
REMARK  136  A    between atoms: _318  and  _319
REMARK  137  A    between atoms: _318  and  _321
REMARK  138  A    between atoms: _321  and  _322
REMARK  139  A    between atoms: _324  and  _326
REMARK  140  A    between atoms: _326  and  _327
REMARK  141  A    between atoms: _326  and  _329
REMARK  142  A    between atoms: _329  and  _330
REMARK  143  A    between atoms: _335  and  _337
REMARK  144  A    between atoms: _337  and  _338
REMARK  145  A    between atoms: _337  and  _340
REMARK  146  A    between atoms: _340  and  _341
REMARK  147  A    between atoms: _341  and  _342
REMARK  148  A    between atoms: _347  and  _349
REMARK  149  A    between atoms: _349  and  _350
REMARK  150  A    between atoms: _349  and  _352
REMARK  151  A    between atoms: _352  and  _353
REMARK  152  A    between atoms: _358  and  _360
REMARK  153  A    between atoms: _360  and  _361
REMARK  154  A    between atoms: _360  and  _363
REMARK  155  A    between atoms: _363  and  _364
REMARK  156  A    between atoms: _367  and  _369
REMARK  157  A    between atoms: _369  and  _370
REMARK  158  A    between atoms: _369  and  _372
REMARK  159  A    between atoms: _374  and  _376
REMARK  160  A    between atoms: _376  and  _377
REMARK  161  A    between atoms: _379  and  _381
REMARK  162  A    between atoms: _381  and  _382
REMARK  163  A    between atoms: _381  and  _384
REMARK  164  A    between atoms: _384  and  _385
REMARK  165  A    between atoms: _385  and  _386
REMARK  166  A    between atoms: _391  and  _393
REMARK  167  A    between atoms: _393  and  _394
REMARK  168  A    between atoms: _393  and  _396
REMARK  169  A    between atoms: _399  and  _401
REMARK  170  A    between atoms: _401  and  _402
REMARK  171  A    between atoms: _401  and  _404
REMARK  172  A    between atoms: _407  and  _409
REMARK  173  A    between atoms: _409  and  _410
REMARK  174  A    between atoms: _409  and  _412
REMARK  175  A    between atoms: _412  and  _413
REMARK  176  A    between atoms: _415  and  _417
REMARK  177  A    between atoms: _417  and  _418
REMARK  178  A    between atoms: _420  and  _422
REMARK  179  A    between atoms: _422  and  _423
REMARK  180  A    between atoms: _422  and  _425
REMARK  181  A    between atoms: _425  and  _426
REMARK  182  A    between atoms: _431  and  _432
REMARK  183  A    between atoms: _434  and  _436
REMARK  184  A    between atoms: _436  and  _437
REMARK  185  A    between atoms: _436  and  _439
REMARK  186  A    between atoms: _439  and  _440
REMARK  187  A    between atoms: _440  and  _441
REMARK  188  A    between atoms: _441  and  _442
REMARK  189  A    between atoms: _451  and  _453
REMARK  190  A    between atoms: _453  and  _454
REMARK  191  A    between atoms: _453  and  _456
REMARK  192  A    between atoms: _456  and  _457
REMARK  193  A    between atoms: _457  and  _458
REMARK  194  A    between atoms: _460  and  _462
REMARK  195  A    between atoms: _462  and  _463
REMARK  196  A    between atoms: _462  and  _465
REMARK  197  A    between atoms: _465  and  _466
REMARK  198  A    between atoms: _469  and  _471
REMARK  199  A    between atoms: _471  and  _472
REMARK  200  A    between atoms: _471  and  _474
REMARK  201  A    between atoms: _477  and  _479
REMARK  202  A    between atoms: _479  and  _480
REMARK  203  A    between atoms: _479  and  _482
REMARK  204  A    between atoms: _482  and  _483
REMARK  205  A    between atoms: _486  and  _488
REMARK  206  A    between atoms: _488  and  _489
REMARK  207  A    between atoms: _488  and  _491
REMARK  208  A    between atoms: _491  and  _492
REMARK  209  A    between atoms: _492  and  _493
REMARK  210  A    between atoms: _496  and  _498
REMARK  211  A    between atoms: _498  and  _499
REMARK  212  A    between atoms: _498  and  _501
REMARK  213  A    between atoms: _501  and  _502
REMARK  214  A    between atoms: _505  and  _507
REMARK  215  A    between atoms: _507  and  _508
REMARK  216  A    between atoms: _507  and  _510
REMARK  217  A    between atoms: _510  and  _511
REMARK  218  A    between atoms: _511  and  _512
REMARK  219  A    between atoms: _517  and  _519
REMARK  220  A    between atoms: _519  and  _520
REMARK  221  A    between atoms: _522  and  _524
REMARK  222  A    between atoms: _524  and  _525
REMARK  223  A    between atoms: _524  and  _527
REMARK  224  A    between atoms: _527  and  _528
REMARK  225  A    between atoms: _531  and  _533
REMARK  226  A    between atoms: _533  and  _534
REMARK  227  A    between atoms: _533  and  _536
REMARK  228  A    between atoms: _539  and  _541
REMARK  229  A    between atoms: _541  and  _542
REMARK  230  A    between atoms: _541  and  _544
REMARK  231  A    between atoms: _546  and  _548
REMARK  232  A    between atoms: _548  and  _549
REMARK  233  A    between atoms: _548  and  _551
REMARK  234  A    between atoms: _551  and  _552
REMARK  235  A    between atoms: _555  and  _557
REMARK  236  A    between atoms: _557  and  _558
REMARK  237  A    between atoms: _557  and  _560
REMARK  238  A    between atoms: _560  and  _561
REMARK  239  A    between atoms: _561  and  _562
REMARK  240  A    between atoms: _564  and  _566
REMARK  241  A    between atoms: _566  and  _567
REMARK  242  A    between atoms: _566  and  _569
REMARK  243  A    between atoms: _571  and  _573
REMARK  244  A    between atoms: _573  and  _574
REMARK  245  A    between atoms: _573  and  _576
REMARK  246  A    between atoms: _579  and  _581
REMARK  247  A    between atoms: _581  and  _582
REMARK  248  A    between atoms: _581  and  _584
REMARK  249  A    between atoms: _584  and  _585
REMARK  250  A    between atoms: _590  and  _592
REMARK  251  A    between atoms: _592  and  _593
REMARK  252  A    between atoms: _592  and  _595
REMARK  253  A    between atoms: _595  and  _596
REMARK  254  A    between atoms: _601  and  _602
REMARK                            x       y       z     vdW  Elec       q    Type
REMARK                         _______ _______ _______ _____ _____    ______ ____
ROOT
ATOM      1  O   HOH     1      16.579  -8.347  28.999  0.00  0.00    +0.000 OA
ENDROOT
TORSDOF 0
REMARK  Name = ../refined-set-2016/4xt2/4xt2_pocket.pdb
REMARK  254 active torsions:
REMARK  status: ('A' for Active; 'I' for Inactive)
REMARK    1  A    between atoms: _1  and  _3
REMARK    2  A    between atoms: _3  and  _4
REMARK    3  A    between atoms: _3  and  _6
REMARK    4  A    between atoms: _6  and  _7
REMARK    5  A    between atoms: _13  and  _15
REMARK    6  A    between atoms: _15  and  _16
REMARK    7  A    between atoms: _15  and  _18
REMARK    8  A    between atoms: _18  and  _19
REMARK    9  A    between atoms: _22  and  _24
REMARK   10  A    between atoms: _24  and  _25
REMARK   11  A    between atoms: _24  and  _27
REMARK   12  A    between atoms: _27  and  _28
REMARK   13  A    between atoms: _30  and  _32
REMARK   14  A    between atoms: _32  and  _33
REMARK   15  A    between atoms: _32  and  _35
REMARK   16  A    between atoms: _35  and  _36
REMARK   17  A    between atoms: _36  and  _37
REMARK   18  A    between atoms: _40  and  _42
REMARK   19  A    between atoms: _42  and  _43
REMARK   20  A    between atoms: _42  and  _45
REMARK   21  A    between atoms: _45  and  _46
REMARK   22  A    between atoms: _51  and  _53
REMARK   23  A    between atoms: _53  and  _54
REMARK   24  A    between atoms: _53  and  _56
REMARK   25  A    between atoms: _56  and  _57
REMARK   26  A    between atoms: _59  and  _61
REMARK   27  A    between atoms: _61  and  _62
REMARK   28  A    between atoms: _61  and  _64
REMARK   29  A    between atoms: _64  and  _65
REMARK   30  A    between atoms: _65  and  _66
REMARK   31  A    between atoms: _68  and  _70
REMARK   32  A    between atoms: _70  and  _71
REMARK   33  A    between atoms: _70  and  _73
REMARK   34  A    between atoms: _73  and  _74
REMARK   35  A    between atoms: _77  and  _79
REMARK   36  A    between atoms: _79  and  _80
REMARK   37  A    between atoms: _79  and  _82
REMARK   38  A    between atoms: _82  and  _83
REMARK   39  A    between atoms: _83  and  _84
REMARK   40  A    between atoms: _86  and  _88
REMARK   41  A    between atoms: _88  and  _89
REMARK   42  A    between atoms: _88  and  _91
REMARK   43  A    between atoms: _91  and  _92
REMARK   44  A    between atoms: _92  and  _93
REMARK   45  A    between atoms: _93  and  _94
REMARK   46  A    between atoms: _94  and  _95
REMARK   47  A    between atoms: _99  and  _101
REMARK   48  A    between atoms: _101  and  _102
REMARK   49  A    between atoms: _101  and  _104
REMARK   50  A    between atoms: _104  and  _105
REMARK   51  A    between atoms: _111  and  _113
REMARK   52  A    between atoms: _113  and  _114
REMARK   53  A    between atoms: _113  and  _116
REMARK   54  A    between atoms: _116  and  _117
REMARK   55  A    between atoms: _120  and  _122
REMARK   56  A    between atoms: _122  and  _123
REMARK   57  A    between atoms: _122  and  _125
REMARK   58  A    between atoms: _125  and  _126
REMARK   59  A    between atoms: _131  and  _132
REMARK   60  A    between atoms: _134  and  _136
REMARK   61  A    between atoms: _136  and  _137
REMARK   62  A    between atoms: _136  and  _139
REMARK   63  A    between atoms: _141  and  _143
REMARK   64  A    between atoms: _143  and  _144
REMARK   65  A    between atoms: _143  and  _146
REMARK   66  A    between atoms: _146  and  _147
REMARK   67  A    between atoms: _150  and  _152
REMARK   68  A    between atoms: _152  and  _153
REMARK   69  A    between atoms: _152  and  _155
REMARK   70  A    between atoms: _155  and  _156
REMARK   71  A    between atoms: _159  and  _161
REMARK   72  A    between atoms: _161  and  _162
REMARK   73  A    between atoms: _161  and  _164
REMARK   74  A    between atoms: _164  and  _165
REMARK   75  A    between atoms: _170  and  _171
REMARK   76  A    between atoms: _173  and  _175
REMARK   77  A    between atoms: _175  and  _176
REMARK   78  A    between atoms: _175  and  _178
REMARK   79  A    between atoms: _178  and  _179
REMARK   80  A    between atoms: _182  and  _184
REMARK   81  A    between atoms: _184  and  _185
REMARK   82  A    between atoms: _184  and  _187
REMARK   83  A    between atoms: _187  and  _188
REMARK   84  A    between atoms: _188  and  _189
REMARK   85  A    between atoms: _189  and  _190
REMARK   86  A    between atoms: _199  and  _201
REMARK   87  A    between atoms: _201  and  _202
REMARK   88  A    between atoms: _201  and  _204
REMARK   89  A    between atoms: _204  and  _205
REMARK   90  A    between atoms: _207  and  _209
REMARK   91  A    between atoms: _209  and  _210
REMARK   92  A    between atoms: _213  and  _215
REMARK   93  A    between atoms: _215  and  _216
REMARK   94  A    between atoms: _215  and  _218
REMARK   95  A    between atoms: _218  and  _219
REMARK   96  A    between atoms: _224  and  _225
REMARK   97  A    between atoms: _227  and  _229
REMARK   98  A    between atoms: _229  and  _230
REMARK   99  A    between atoms: _229  and  _232
REMARK  100  A    between atoms: _232  and  _233
REMARK  101  A    between atoms: _233  and  _234
REMARK  102  A    between atoms: _237  and  _239
REMARK  103  A    between atoms: _239  and  _240
REMARK  104  A    between atoms: _239  and  _242
REMARK  105  A    between atoms: _242  and  _243
REMARK  106  A    between atoms: _249  and  _251
REMARK  107  A    between atoms: _251  and  _252
REMARK  108  A    between atoms: _251  and  _254
REMARK  109  A    between atoms: _254  and  _255
REMARK  110  A    between atoms: _260  and  _261
REMARK  111  A    between atoms: _263  and  _265
REMARK  112  A    between atoms: _265  and  _266
REMARK  113  A    between atoms: _265  and  _268
REMARK  114  A    between atoms: _268  and  _269
REMARK  115  A    between atoms: _274  and  _276
REMARK  116  A    between atoms: _276  and  _277
REMARK  117  A    between atoms: _276  and  _279
REMARK  118  A    between atoms: _279  and  _280
REMARK  119  A    between atoms: _285  and  _287
REMARK  120  A    between atoms: _287  and  _288
REMARK  121  A    between atoms: _287  and  _290
REMARK  122  A    between atoms: _290  and  _291
REMARK  123  A    between atoms: _291  and  _292
REMARK  124  A    between atoms: _294  and  _296
REMARK  125  A    between atoms: _296  and  _297
REMARK  126  A    between atoms: _296  and  _299
REMARK  127  A    between atoms: _299  and  _300
REMARK  128  A    between atoms: _303  and  _305
REMARK  129  A    between atoms: _305  and  _306
REMARK  130  A    between atoms: _305  and  _308
REMARK  131  A    between atoms: _308  and  _309
REMARK  132  A    between atoms: _309  and  _310
REMARK  133  A    between atoms: _310  and  _311
REMARK  134  A    between atoms: _311  and  _312
REMARK  135  A    between atoms: _316  and  _318
REMARK  136  A    between atoms: _318  and  _319
REMARK  137  A    between atoms: _318  and  _321
REMARK  138  A    between atoms: _321  and  _322
REMARK  139  A    between atoms: _324  and  _326
REMARK  140  A    between atoms: _326  and  _327
REMARK  141  A    between atoms: _326  and  _329
REMARK  142  A    between atoms: _329  and  _330
REMARK  143  A    between atoms: _335  and  _337
REMARK  144  A    between atoms: _337  and  _338
REMARK  145  A    between atoms: _337  and  _340
REMARK  146  A    between atoms: _340  and  _341
REMARK  147  A    between atoms: _341  and  _342
REMARK  148  A    between atoms: _347  and  _349
REMARK  149  A    between atoms: _349  and  _350
REMARK  150  A    between atoms: _349  and  _352
REMARK  151  A    between atoms: _352  and  _353
REMARK  152  A    between atoms: _358  and  _360
REMARK  153  A    between atoms: _360  and  _361
REMARK  154  A    between atoms: _360  and  _363
REMARK  155  A    between atoms: _363  and  _364
REMARK  156  A    between atoms: _367  and  _369
REMARK  157  A    between atoms: _369  and  _370
REMARK  158  A    between atoms: _369  and  _372
REMARK  159  A    between atoms: _374  and  _376
REMARK  160  A    between atoms: _376  and  _377
REMARK  161  A    between atoms: _379  and  _381
REMARK  162  A    between atoms: _381  and  _382
REMARK  163  A    between atoms: _381  and  _384
REMARK  164  A    between atoms: _384  and  _385
REMARK  165  A    between atoms: _385  and  _386
REMARK  166  A    between atoms: _391  and  _393
REMARK  167  A    between atoms: _393  and  _394
REMARK  168  A    between atoms: _393  and  _396
REMARK  169  A    between atoms: _399  and  _401
REMARK  170  A    between atoms: _401  and  _402
REMARK  171  A    between atoms: _401  and  _404
REMARK  172  A    between atoms: _407  and  _409
REMARK  173  A    between atoms: _409  and  _410
REMARK  174  A    between atoms: _409  and  _412
REMARK  175  A    between atoms: _412  and  _413
REMARK  176  A    between atoms: _415  and  _417
REMARK  177  A    between atoms: _417  and  _418
REMARK  178  A    between atoms: _420  and  _422
REMARK  179  A    between atoms: _422  and  _423
REMARK  180  A    between atoms: _422  and  _425
REMARK  181  A    between atoms: _425  and  _426
REMARK  182  A    between atoms: _431  and  _432
REMARK  183  A    between atoms: _434  and  _436
REMARK  184  A    between atoms: _436  and  _437
REMARK  185  A    between atoms: _436  and  _439
REMARK  186  A    between atoms: _439  and  _440
REMARK  187  A    between atoms: _440  and  _441
REMARK  188  A    between atoms: _441  and  _442
REMARK  189  A    between atoms: _451  and  _453
REMARK  190  A    between atoms: _453  and  _454
REMARK  191  A    between atoms: _453  and  _456
REMARK  192  A    between atoms: _456  and  _457
REMARK  193  A    between atoms: _457  and  _458
REMARK  194  A    between atoms: _460  and  _462
REMARK  195  A    between atoms: _462  and  _463
REMARK  196  A    between atoms: _462  and  _465
REMARK  197  A    between atoms: _465  and  _466
REMARK  198  A    between atoms: _469  and  _471
REMARK  199  A    between atoms: _471  and  _472
REMARK  200  A    between atoms: _471  and  _474
REMARK  201  A    between atoms: _477  and  _479
REMARK  202  A    between atoms: _479  and  _480
REMARK  203  A    between atoms: _479  and  _482
REMARK  204  A    between atoms: _482  and  _483
REMARK  205  A    between atoms: _486  and  _488
REMARK  206  A    between atoms: _488  and  _489
REMARK  207  A    between atoms: _488  and  _491
REMARK  208  A    between atoms: _491  and  _492
REMARK  209  A    between atoms: _492  and  _493
REMARK  210  A    between atoms: _496  and  _498
REMARK  211  A    between atoms: _498  and  _499
REMARK  212  A    between atoms: _498  and  _501
REMARK  213  A    between atoms: _501  and  _502
REMARK  214  A    between atoms: _505  and  _507
REMARK  215  A    between atoms: _507  and  _508
REMARK  216  A    between atoms: _507  and  _510
REMARK  217  A    between atoms: _510  and  _511
REMARK  218  A    between atoms: _511  and  _512
REMARK  219  A    between atoms: _517  and  _519
REMARK  220  A    between atoms: _519  and  _520
REMARK  221  A    between atoms: _522  and  _524
REMARK  222  A    between atoms: _524  and  _525
REMARK  223  A    between atoms: _524  and  _527
REMARK  224  A    between atoms: _527  and  _528
REMARK  225  A    between atoms: _531  and  _533
REMARK  226  A    between atoms: _533  and  _534
REMARK  227  A    between atoms: _533  and  _536
REMARK  228  A    between atoms: _539  and  _541
REMARK  229  A    between atoms: _541  and  _542
REMARK  230  A    between atoms: _541  and  _544
REMARK  231  A    between atoms: _546  and  _548
REMARK  232  A    between atoms: _548  and  _549
REMARK  233  A    between atoms: _548  and  _551
REMARK  234  A    between atoms: _551  and  _552
REMARK  235  A    between atoms: _555  and  _557
REMARK  236  A    between atoms: _557  and  _558
REMARK  237  A    between atoms: _557  and  _560
REMARK  238  A    between atoms: _560  and  _561
REMARK  239  A    between atoms: _561  and  _562
REMARK  240  A    between atoms: _564  and  _566
REMARK  241  A    between atoms: _566  and  _567
REMARK  242  A    between atoms: _566  and  _569
REMARK  243  A    between atoms: _571  and  _573
REMARK  244  A    between atoms: _573  and  _574
REMARK  245  A    between atoms: _573  and  _576
REMARK  246  A    between atoms: _579  and  _581
REMARK  247  A    between atoms: _581  and  _582
REMARK  248  A    between atoms: _581  and  _584
REMARK  249  A    between atoms: _584  and  _585
REMARK  250  A    between atoms: _590  and  _592
REMARK  251  A    between atoms: _592  and  _593
REMARK  252  A    between atoms: _592  and  _595
REMARK  253  A    between atoms: _595  and  _596
REMARK  254  A    between atoms: _601  and  _602
REMARK                            x       y       z     vdW  Elec       q    Type
REMARK                         _______ _______ _______ _____ _____    ______ ____
ROOT
ATOM      1  O   HOH     1      18.903   0.733  36.676  0.00  0.00    +0.000 OA
ENDROOT
TORSDOF 0
REMARK  Name = ../refined-set-2016/4xt2/4xt2_pocket.pdb
REMARK  254 active torsions:
REMARK  status: ('A' for Active; 'I' for Inactive)
REMARK    1  A    between atoms: _1  and  _3
REMARK    2  A    between atoms: _3  and  _4
REMARK    3  A    between atoms: _3  and  _6
REMARK    4  A    between atoms: _6  and  _7
REMARK    5  A    between atoms: _13  and  _15
REMARK    6  A    between atoms: _15  and  _16
REMARK    7  A    between atoms: _15  and  _18
REMARK    8  A    between atoms: _18  and  _19
REMARK    9  A    between atoms: _22  and  _24
REMARK   10  A    between atoms: _24  and  _25
REMARK   11  A    between atoms: _24  and  _27
REMARK   12  A    between atoms: _27  and  _28
REMARK   13  A    between atoms: _30  and  _32
REMARK   14  A    between atoms: _32  and  _33
REMARK   15  A    between atoms: _32  and  _35
REMARK   16  A    between atoms: _35  and  _36
REMARK   17  A    between atoms: _36  and  _37
REMARK   18  A    between atoms: _40  and  _42
REMARK   19  A    between atoms: _42  and  _43
REMARK   20  A    between atoms: _42  and  _45
REMARK   21  A    between atoms: _45  and  _46
REMARK   22  A    between atoms: _51  and  _53
REMARK   23  A    between atoms: _53  and  _54
REMARK   24  A    between atoms: _53  and  _56
REMARK   25  A    between atoms: _56  and  _57
REMARK   26  A    between atoms: _59  and  _61
REMARK   27  A    between atoms: _61  and  _62
REMARK   28  A    between atoms: _61  and  _64
REMARK   29  A    between atoms: _64  and  _65
REMARK   30  A    between atoms: _65  and  _66
REMARK   31  A    between atoms: _68  and  _70
REMARK   32  A    between atoms: _70  and  _71
REMARK   33  A    between atoms: _70  and  _73
REMARK   34  A    between atoms: _73  and  _74
REMARK   35  A    between atoms: _77  and  _79
REMARK   36  A    between atoms: _79  and  _80
REMARK   37  A    between atoms: _79  and  _82
REMARK   38  A    between atoms: _82  and  _83
REMARK   39  A    between atoms: _83  and  _84
REMARK   40  A    between atoms: _86  and  _88
REMARK   41  A    between atoms: _88  and  _89
REMARK   42  A    between atoms: _88  and  _91
REMARK   43  A    between atoms: _91  and  _92
REMARK   44  A    between atoms: _92  and  _93
REMARK   45  A    between atoms: _93  and  _94
REMARK   46  A    between atoms: _94  and  _95
REMARK   47  A    between atoms: _99  and  _101
REMARK   48  A    between atoms: _101  and  _102
REMARK   49  A    between atoms: _101  and  _104
REMARK   50  A    between atoms: _104  and  _105
REMARK   51  A    between atoms: _111  and  _113
REMARK   52  A    between atoms: _113  and  _114
REMARK   53  A    between atoms: _113  and  _116
REMARK   54  A    between atoms: _116  and  _117
REMARK   55  A    between atoms: _120  and  _122
REMARK   56  A    between atoms: _122  and  _123
REMARK   57  A    between atoms: _122  and  _125
REMARK   58  A    between atoms: _125  and  _126
REMARK   59  A    between atoms: _131  and  _132
REMARK   60  A    between atoms: _134  and  _136
REMARK   61  A    between atoms: _136  and  _137
REMARK   62  A    between atoms: _136  and  _139
REMARK   63  A    between atoms: _141  and  _143
REMARK   64  A    between atoms: _143  and  _144
REMARK   65  A    between atoms: _143  and  _146
REMARK   66  A    between atoms: _146  and  _147
REMARK   67  A    between atoms: _150  and  _152
REMARK   68  A    between atoms: _152  and  _153
REMARK   69  A    between atoms: _152  and  _155
REMARK   70  A    between atoms: _155  and  _156
REMARK   71  A    between atoms: _159  and  _161
REMARK   72  A    between atoms: _161  and  _162
REMARK   73  A    between atoms: _161  and  _164
REMARK   74  A    between atoms: _164  and  _165
REMARK   75  A    between atoms: _170  and  _171
REMARK   76  A    between atoms: _173  and  _175
REMARK   77  A    between atoms: _175  and  _176
REMARK   78  A    between atoms: _175  and  _178
REMARK   79  A    between atoms: _178  and  _179
REMARK   80  A    between atoms: _182  and  _184
REMARK   81  A    between atoms: _184  and  _185
REMARK   82  A    between atoms: _184  and  _187
REMARK   83  A    between atoms: _187  and  _188
REMARK   84  A    between atoms: _188  and  _189
REMARK   85  A    between atoms: _189  and  _190
REMARK   86  A    between atoms: _199  and  _201
REMARK   87  A    between atoms: _201  and  _202
REMARK   88  A    between atoms: _201  and  _204
REMARK   89  A    between atoms: _204  and  _205
REMARK   90  A    between atoms: _207  and  _209
REMARK   91  A    between atoms: _209  and  _210
REMARK   92  A    between atoms: _213  and  _215
REMARK   93  A    between atoms: _215  and  _216
REMARK   94  A    between atoms: _215  and  _218
REMARK   95  A    between atoms: _218  and  _219
REMARK   96  A    between atoms: _224  and  _225
REMARK   97  A    between atoms: _227  and  _229
REMARK   98  A    between atoms: _229  and  _230
REMARK   99  A    between atoms: _229  and  _232
REMARK  100  A    between atoms: _232  and  _233
REMARK  101  A    between atoms: _233  and  _234
REMARK  102  A    between atoms: _237  and  _239
REMARK  103  A    between atoms: _239  and  _240
REMARK  104  A    between atoms: _239  and  _242
REMARK  105  A    between atoms: _242  and  _243
REMARK  106  A    between atoms: _249  and  _251
REMARK  107  A    between atoms: _251  and  _252
REMARK  108  A    between atoms: _251  and  _254
REMARK  109  A    between atoms: _254  and  _255
REMARK  110  A    between atoms: _260  and  _261
REMARK  111  A    between atoms: _263  and  _265
REMARK  112  A    between atoms: _265  and  _266
REMARK  113  A    between atoms: _265  and  _268
REMARK  114  A    between atoms: _268  and  _269
REMARK  115  A    between atoms: _274  and  _276
REMARK  116  A    between atoms: _276  and  _277
REMARK  117  A    between atoms: _276  and  _279
REMARK  118  A    between atoms: _279  and  _280
REMARK  119  A    between atoms: _285  and  _287
REMARK  120  A    between atoms: _287  and  _288
REMARK  121  A    between atoms: _287  and  _290
REMARK  122  A    between atoms: _290  and  _291
REMARK  123  A    between atoms: _291  and  _292
REMARK  124  A    between atoms: _294  and  _296
REMARK  125  A    between atoms: _296  and  _297
REMARK  126  A    between atoms: _296  and  _299
REMARK  127  A    between atoms: _299  and  _300
REMARK  128  A    between atoms: _303  and  _305
REMARK  129  A    between atoms: _305  and  _306
REMARK  130  A    between atoms: _305  and  _308
REMARK  131  A    between atoms: _308  and  _309
REMARK  132  A    between atoms: _309  and  _310
REMARK  133  A    between atoms: _310  and  _311
REMARK  134  A    between atoms: _311  and  _312
REMARK  135  A    between atoms: _316  and  _318
REMARK  136  A    between atoms: _318  and  _319
REMARK  137  A    between atoms: _318  and  _321
REMARK  138  A    between atoms: _321  and  _322
REMARK  139  A    between atoms: _324  and  _326
REMARK  140  A    between atoms: _326  and  _327
REMARK  141  A    between atoms: _326  and  _329
REMARK  142  A    between atoms: _329  and  _330
REMARK  143  A    between atoms: _335  and  _337
REMARK  144  A    between atoms: _337  and  _338
REMARK  145  A    between atoms: _337  and  _340
REMARK  146  A    between atoms: _340  and  _341
REMARK  147  A    between atoms: _341  and  _342
REMARK  148  A    between atoms: _347  and  _349
REMARK  149  A    between atoms: _349  and  _350
REMARK  150  A    between atoms: _349  and  _352
REMARK  151  A    between atoms: _352  and  _353
REMARK  152  A    between atoms: _358  and  _360
REMARK  153  A    between atoms: _360  and  _361
REMARK  154  A    between atoms: _360  and  _363
REMARK  155  A    between atoms: _363  and  _364
REMARK  156  A    between atoms: _367  and  _369
REMARK  157  A    between atoms: _369  and  _370
REMARK  158  A    between atoms: _369  and  _372
REMARK  159  A    between atoms: _374  and  _376
REMARK  160  A    between atoms: _376  and  _377
REMARK  161  A    between atoms: _379  and  _381
REMARK  162  A    between atoms: _381  and  _382
REMARK  163  A    between atoms: _381  and  _384
REMARK  164  A    between atoms: _384  and  _385
REMARK  165  A    between atoms: _385  and  _386
REMARK  166  A    between atoms: _391  and  _393
REMARK  167  A    between atoms: _393  and  _394
REMARK  168  A    between atoms: _393  and  _396
REMARK  169  A    between atoms: _399  and  _401
REMARK  170  A    between atoms: _401  and  _402
REMARK  171  A    between atoms: _401  and  _404
REMARK  172  A    between atoms: _407  and  _409
REMARK  173  A    between atoms: _409  and  _410
REMARK  174  A    between atoms: _409  and  _412
REMARK  175  A    between atoms: _412  and  _413
REMARK  176  A    between atoms: _415  and  _417
REMARK  177  A    between atoms: _417  and  _418
REMARK  178  A    between atoms: _420  and  _422
REMARK  179  A    between atoms: _422  and  _423
REMARK  180  A    between atoms: _422  and  _425
REMARK  181  A    between atoms: _425  and  _426
REMARK  182  A    between atoms: _431  and  _432
REMARK  183  A    between atoms: _434  and  _436
REMARK  184  A    between atoms: _436  and  _437
REMARK  185  A    between atoms: _436  and  _439
REMARK  186  A    between atoms: _439  and  _440
REMARK  187  A    between atoms: _440  and  _441
REMARK  188  A    between atoms: _441  and  _442
REMARK  189  A    between atoms: _451  and  _453
REMARK  190  A    between atoms: _453  and  _454
REMARK  191  A    between atoms: _453  and  _456
REMARK  192  A    between atoms: _456  and  _457
REMARK  193  A    between atoms: _457  and  _458
REMARK  194  A    between atoms: _460  and  _462
REMARK  195  A    between atoms: _462  and  _463
REMARK  196  A    between atoms: _462  and  _465
REMARK  197  A    between atoms: _465  and  _466
REMARK  198  A    between atoms: _469  and  _471
REMARK  199  A    between atoms: _471  and  _472
REMARK  200  A    between atoms: _471  and  _474
REMARK  201  A    between atoms: _477  and  _479
REMARK  202  A    between atoms: _479  and  _480
REMARK  203  A    between atoms: _479  and  _482
REMARK  204  A    between atoms: _482  and  _483
REMARK  205  A    between atoms: _486  and  _488
REMARK  206  A    between atoms: _488  and  _489
REMARK  207  A    between atoms: _488  and  _491
REMARK  208  A    between atoms: _491  and  _492
REMARK  209  A    between atoms: _492  and  _493
REMARK  210  A    between atoms: _496  and  _498
REMARK  211  A    between atoms: _498  and  _499
REMARK  212  A    between atoms: _498  and  _501
REMARK  213  A    between atoms: _501  and  _502
REMARK  214  A    between atoms: _505  and  _507
REMARK  215  A    between atoms: _507  and  _508
REMARK  216  A    between atoms: _507  and  _510
REMARK  217  A    between atoms: _510  and  _511
REMARK  218  A    between atoms: _511  and  _512
REMARK  219  A    between atoms: _517  and  _519
REMARK  220  A    between atoms: _519  and  _520
REMARK  221  A    between atoms: _522  and  _524
REMARK  222  A    between atoms: _524  and  _525
REMARK  223  A    between atoms: _524  and  _527
REMARK  224  A    between atoms: _527  and  _528
REMARK  225  A    between atoms: _531  and  _533
REMARK  226  A    between atoms: _533  and  _534
REMARK  227  A    between atoms: _533  and  _536
REMARK  228  A    between atoms: _539  and  _541
REMARK  229  A    between atoms: _541  and  _542
REMARK  230  A    between atoms: _541  and  _544
REMARK  231  A    between atoms: _546  and  _548
REMARK  232  A    between atoms: _548  and  _549
REMARK  233  A    between atoms: _548  and  _551
REMARK  234  A    between atoms: _551  and  _552
REMARK  235  A    between atoms: _555  and  _557
REMARK  236  A    between atoms: _557  and  _558
REMARK  237  A    between atoms: _557  and  _560
REMARK  238  A    between atoms: _560  and  _561
REMARK  239  A    between atoms: _561  and  _562
REMARK  240  A    between atoms: _564  and  _566
REMARK  241  A    between atoms: _566  and  _567
REMARK  242  A    between atoms: _566  and  _569
REMARK  243  A    between atoms: _571  and  _573
REMARK  244  A    between atoms: _573  and  _574
REMARK  245  A    between atoms: _573  and  _576
REMARK  246  A    between atoms: _579  and  _581
REMARK  247  A    between atoms: _581  and  _582
REMARK  248  A    between atoms: _581  and  _584
REMARK  249  A    between atoms: _584  and  _585
REMARK  250  A    between atoms: _590  and  _592
REMARK  251  A    between atoms: _592  and  _593
REMARK  252  A    between atoms: _592  and  _595
REMARK  253  A    between atoms: _595  and  _596
REMARK  254  A    between atoms: _601  and  _602
REMARK                            x       y       z     vdW  Elec       q    Type
REMARK                         _______ _______ _______ _____ _____    ______ ____
ROOT
ATOM      1  O   HOH     1      10.298   2.322  24.320  0.00  0.00    +0.000 OA
ENDROOT
TORSDOF 0
REMARK  Name = ../refined-set-2016/4xt2/4xt2_pocket.pdb
REMARK  254 active torsions:
REMARK  status: ('A' for Active; 'I' for Inactive)
REMARK    1  A    between atoms: _1  and  _3
REMARK    2  A    between atoms: _3  and  _4
REMARK    3  A    between atoms: _3  and  _6
REMARK    4  A    between atoms: _6  and  _7
REMARK    5  A    between atoms: _13  and  _15
REMARK    6  A    between atoms: _15  and  _16
REMARK    7  A    between atoms: _15  and  _18
REMARK    8  A    between atoms: _18  and  _19
REMARK    9  A    between atoms: _22  and  _24
REMARK   10  A    between atoms: _24  and  _25
REMARK   11  A    between atoms: _24  and  _27
REMARK   12  A    between atoms: _27  and  _28
REMARK   13  A    between atoms: _30  and  _32
REMARK   14  A    between atoms: _32  and  _33
REMARK   15  A    between atoms: _32  and  _35
REMARK   16  A    between atoms: _35  and  _36
REMARK   17  A    between atoms: _36  and  _37
REMARK   18  A    between atoms: _40  and  _42
REMARK   19  A    between atoms: _42  and  _43
REMARK   20  A    between atoms: _42  and  _45
REMARK   21  A    between atoms: _45  and  _46
REMARK   22  A    between atoms: _51  and  _53
REMARK   23  A    between atoms: _53  and  _54
REMARK   24  A    between atoms: _53  and  _56
REMARK   25  A    between atoms: _56  and  _57
REMARK   26  A    between atoms: _59  and  _61
REMARK   27  A    between atoms: _61  and  _62
REMARK   28  A    between atoms: _61  and  _64
REMARK   29  A    between atoms: _64  and  _65
REMARK   30  A    between atoms: _65  and  _66
REMARK   31  A    between atoms: _68  and  _70
REMARK   32  A    between atoms: _70  and  _71
REMARK   33  A    between atoms: _70  and  _73
REMARK   34  A    between atoms: _73  and  _74
REMARK   35  A    between atoms: _77  and  _79
REMARK   36  A    between atoms: _79  and  _80
REMARK   37  A    between atoms: _79  and  _82
REMARK   38  A    between atoms: _82  and  _83
REMARK   39  A    between atoms: _83  and  _84
REMARK   40  A    between atoms: _86  and  _88
REMARK   41  A    between atoms: _88  and  _89
REMARK   42  A    between atoms: _88  and  _91
REMARK   43  A    between atoms: _91  and  _92
REMARK   44  A    between atoms: _92  and  _93
REMARK   45  A    between atoms: _93  and  _94
REMARK   46  A    between atoms: _94  and  _95
REMARK   47  A    between atoms: _99  and  _101
REMARK   48  A    between atoms: _101  and  _102
REMARK   49  A    between atoms: _101  and  _104
REMARK   50  A    between atoms: _104  and  _105
REMARK   51  A    between atoms: _111  and  _113
REMARK   52  A    between atoms: _113  and  _114
REMARK   53  A    between atoms: _113  and  _116
REMARK   54  A    between atoms: _116  and  _117
REMARK   55  A    between atoms: _120  and  _122
REMARK   56  A    between atoms: _122  and  _123
REMARK   57  A    between atoms: _122  and  _125
REMARK   58  A    between atoms: _125  and  _126
REMARK   59  A    between atoms: _131  and  _132
REMARK   60  A    between atoms: _134  and  _136
REMARK   61  A    between atoms: _136  and  _137
REMARK   62  A    between atoms: _136  and  _139
REMARK   63  A    between atoms: _141  and  _143
REMARK   64  A    between atoms: _143  and  _144
REMARK   65  A    between atoms: _143  and  _146
REMARK   66  A    between atoms: _146  and  _147
REMARK   67  A    between atoms: _150  and  _152
REMARK   68  A    between atoms: _152  and  _153
REMARK   69  A    between atoms: _152  and  _155
REMARK   70  A    between atoms: _155  and  _156
REMARK   71  A    between atoms: _159  and  _161
REMARK   72  A    between atoms: _161  and  _162
REMARK   73  A    between atoms: _161  and  _164
REMARK   74  A    between atoms: _164  and  _165
REMARK   75  A    between atoms: _170  and  _171
REMARK   76  A    between atoms: _173  and  _175
REMARK   77  A    between atoms: _175  and  _176
REMARK   78  A    between atoms: _175  and  _178
REMARK   79  A    between atoms: _178  and  _179
REMARK   80  A    between atoms: _182  and  _184
REMARK   81  A    between atoms: _184  and  _185
REMARK   82  A    between atoms: _184  and  _187
REMARK   83  A    between atoms: _187  and  _188
REMARK   84  A    between atoms: _188  and  _189
REMARK   85  A    between atoms: _189  and  _190
REMARK   86  A    between atoms: _199  and  _201
REMARK   87  A    between atoms: _201  and  _202
REMARK   88  A    between atoms: _201  and  _204
REMARK   89  A    between atoms: _204  and  _205
REMARK   90  A    between atoms: _207  and  _209
REMARK   91  A    between atoms: _209  and  _210
REMARK   92  A    between atoms: _213  and  _215
REMARK   93  A    between atoms: _215  and  _216
REMARK   94  A    between atoms: _215  and  _218
REMARK   95  A    between atoms: _218  and  _219
REMARK   96  A    between atoms: _224  and  _225
REMARK   97  A    between atoms: _227  and  _229
REMARK   98  A    between atoms: _229  and  _230
REMARK   99  A    between atoms: _229  and  _232
REMARK  100  A    between atoms: _232  and  _233
REMARK  101  A    between atoms: _233  and  _234
REMARK  102  A    between atoms: _237  and  _239
REMARK  103  A    between atoms: _239  and  _240
REMARK  104  A    between atoms: _239  and  _242
REMARK  105  A    between atoms: _242  and  _243
REMARK  106  A    between atoms: _249  and  _251
REMARK  107  A    between atoms: _251  and  _252
REMARK  108  A    between atoms: _251  and  _254
REMARK  109  A    between atoms: _254  and  _255
REMARK  110  A    between atoms: _260  and  _261
REMARK  111  A    between atoms: _263  and  _265
REMARK  112  A    between atoms: _265  and  _266
REMARK  113  A    between atoms: _265  and  _268
REMARK  114  A    between atoms: _268  and  _269
REMARK  115  A    between atoms: _274  and  _276
REMARK  116  A    between atoms: _276  and  _277
REMARK  117  A    between atoms: _276  and  _279
REMARK  118  A    between atoms: _279  and  _280
REMARK  119  A    between atoms: _285  and  _287
REMARK  120  A    between atoms: _287  and  _288
REMARK  121  A    between atoms: _287  and  _290
REMARK  122  A    between atoms: _290  and  _291
REMARK  123  A    between atoms: _291  and  _292
REMARK  124  A    between atoms: _294  and  _296
REMARK  125  A    between atoms: _296  and  _297
REMARK  126  A    between atoms: _296  and  _299
REMARK  127  A    between atoms: _299  and  _300
REMARK  128  A    between atoms: _303  and  _305
REMARK  129  A    between atoms: _305  and  _306
REMARK  130  A    between atoms: _305  and  _308
REMARK  131  A    between atoms: _308  and  _309
REMARK  132  A    between atoms: _309  and  _310
REMARK  133  A    between atoms: _310  and  _311
REMARK  134  A    between atoms: _311  and  _312
REMARK  135  A    between atoms: _316  and  _318
REMARK  136  A    between atoms: _318  and  _319
REMARK  137  A    between atoms: _318  and  _321
REMARK  138  A    between atoms: _321  and  _322
REMARK  139  A    between atoms: _324  and  _326
REMARK  140  A    between atoms: _326  and  _327
REMARK  141  A    between atoms: _326  and  _329
REMARK  142  A    between atoms: _329  and  _330
REMARK  143  A    between atoms: _335  and  _337
REMARK  144  A    between atoms: _337  and  _338
REMARK  145  A    between atoms: _337  and  _340
REMARK  146  A    between atoms: _340  and  _341
REMARK  147  A    between atoms: _341  and  _342
REMARK  148  A    between atoms: _347  and  _349
REMARK  149  A    between atoms: _349  and  _350
REMARK  150  A    between atoms: _349  and  _352
REMARK  151  A    between atoms: _352  and  _353
REMARK  152  A    between atoms: _358  and  _360
REMARK  153  A    between atoms: _360  and  _361
REMARK  154  A    between atoms: _360  and  _363
REMARK  155  A    between atoms: _363  and  _364
REMARK  156  A    between atoms: _367  and  _369
REMARK  157  A    between atoms: _369  and  _370
REMARK  158  A    between atoms: _369  and  _372
REMARK  159  A    between atoms: _374  and  _376
REMARK  160  A    between atoms: _376  and  _377
REMARK  161  A    between atoms: _379  and  _381
REMARK  162  A    between atoms: _381  and  _382
REMARK  163  A    between atoms: _381  and  _384
REMARK  164  A    between atoms: _384  and  _385
REMARK  165  A    between atoms: _385  and  _386
REMARK  166  A    between atoms: _391  and  _393
REMARK  167  A    between atoms: _393  and  _394
REMARK  168  A    between atoms: _393  and  _396
REMARK  169  A    between atoms: _399  and  _401
REMARK  170  A    between atoms: _401  and  _402
REMARK  171  A    between atoms: _401  and  _404
REMARK  172  A    between atoms: _407  and  _409
REMARK  173  A    between atoms: _409  and  _410
REMARK  174  A    between atoms: _409  and  _412
REMARK  175  A    between atoms: _412  and  _413
REMARK  176  A    between atoms: _415  and  _417
REMARK  177  A    between atoms: _417  and  _418
REMARK  178  A    between atoms: _420  and  _422
REMARK  179  A    between atoms: _422  and  _423
REMARK  180  A    between atoms: _422  and  _425
REMARK  181  A    between atoms: _425  and  _426
REMARK  182  A    between atoms: _431  and  _432
REMARK  183  A    between atoms: _434  and  _436
REMARK  184  A    between atoms: _436  and  _437
REMARK  185  A    between atoms: _436  and  _439
REMARK  186  A    between atoms: _439  and  _440
REMARK  187  A    between atoms: _440  and  _441
REMARK  188  A    between atoms: _441  and  _442
REMARK  189  A    between atoms: _451  and  _453
REMARK  190  A    between atoms: _453  and  _454
REMARK  191  A    between atoms: _453  and  _456
REMARK  192  A    between atoms: _456  and  _457
REMARK  193  A    between atoms: _457  and  _458
REMARK  194  A    between atoms: _460  and  _462
REMARK  195  A    between atoms: _462  and  _463
REMARK  196  A    between atoms: _462  and  _465
REMARK  197  A    between atoms: _465  and  _466
REMARK  198  A    between atoms: _469  and  _471
REMARK  199  A    between atoms: _471  and  _472
REMARK  200  A    between atoms: _471  and  _474
REMARK  201  A    between atoms: _477  and  _479
REMARK  202  A    between atoms: _479  and  _480
REMARK  203  A    between atoms: _479  and  _482
REMARK  204  A    between atoms: _482  and  _483
REMARK  205  A    between atoms: _486  and  _488
REMARK  206  A    between atoms: _488  and  _489
REMARK  207  A    between atoms: _488  and  _491
REMARK  208  A    between atoms: _491  and  _492
REMARK  209  A    between atoms: _492  and  _493
REMARK  210  A    between atoms: _496  and  _498
REMARK  211  A    between atoms: _498  and  _499
REMARK  212  A    between atoms: _498  and  _501
REMARK  213  A    between atoms: _501  and  _502
REMARK  214  A    between atoms: _505  and  _507
REMARK  215  A    between atoms: _507  and  _508
REMARK  216  A    between atoms: _507  and  _510
REMARK  217  A    between atoms: _510  and  _511
REMARK  218  A    between atoms: _511  and  _512
REMARK  219  A    between atoms: _517  and  _519
REMARK  220  A    between atoms: _519  and  _520
REMARK  221  A    between atoms: _522  and  _524
REMARK  222  A    between atoms: _524  and  _525
REMARK  223  A    between atoms: _524  and  _527
REMARK  224  A    between atoms: _527  and  _528
REMARK  225  A    between atoms: _531  and  _533
REMARK  226  A    between atoms: _533  and  _534
REMARK  227  A    between atoms: _533  and  _536
REMARK  228  A    between atoms: _539  and  _541
REMARK  229  A    between atoms: _541  and  _542
REMARK  230  A    between atoms: _541  and  _544
REMARK  231  A    between atoms: _546  and  _548
REMARK  232  A    between atoms: _548  and  _549
REMARK  233  A    between atoms: _548  and  _551
REMARK  234  A    between atoms: _551  and  _552
REMARK  235  A    between atoms: _555  and  _557
REMARK  236  A    between atoms: _557  and  _558
REMARK  237  A    between atoms: _557  and  _560
REMARK  238  A    between atoms: _560  and  _561
REMARK  239  A    between atoms: _561  and  _562
REMARK  240  A    between atoms: _564  and  _566
REMARK  241  A    between atoms: _566  and  _567
REMARK  242  A    between atoms: _566  and  _569
REMARK  243  A    between atoms: _571  and  _573
REMARK  244  A    between atoms: _573  and  _574
REMARK  245  A    between atoms: _573  and  _576
REMARK  246  A    between atoms: _579  and  _581
REMARK  247  A    between atoms: _581  and  _582
REMARK  248  A    between atoms: _581  and  _584
REMARK  249  A    between atoms: _584  and  _585
REMARK  250  A    between atoms: _590  and  _592
REMARK  251  A    between atoms: _592  and  _593
REMARK  252  A    between atoms: _592  and  _595
REMARK  253  A    between atoms: _595  and  _596
REMARK  254  A    between atoms: _601  and  _602
REMARK                            x       y       z     vdW  Elec       q    Type
REMARK                         _______ _______ _______ _____ _____    ______ ____
ROOT
ATOM      1  O   HOH     1      13.814   3.395  38.161  0.00  0.00    +0.000 OA
ENDROOT
TORSDOF 0
REMARK  Name = ../refined-set-2016/4xt2/4xt2_pocket.pdb
REMARK  254 active torsions:
REMARK  status: ('A' for Active; 'I' for Inactive)
REMARK    1  A    between atoms: _1  and  _3
REMARK    2  A    between atoms: _3  and  _4
REMARK    3  A    between atoms: _3  and  _6
REMARK    4  A    between atoms: _6  and  _7
REMARK    5  A    between atoms: _13  and  _15
REMARK    6  A    between atoms: _15  and  _16
REMARK    7  A    between atoms: _15  and  _18
REMARK    8  A    between atoms: _18  and  _19
REMARK    9  A    between atoms: _22  and  _24
REMARK   10  A    between atoms: _24  and  _25
REMARK   11  A    between atoms: _24  and  _27
REMARK   12  A    between atoms: _27  and  _28
REMARK   13  A    between atoms: _30  and  _32
REMARK   14  A    between atoms: _32  and  _33
REMARK   15  A    between atoms: _32  and  _35
REMARK   16  A    between atoms: _35  and  _36
REMARK   17  A    between atoms: _36  and  _37
REMARK   18  A    between atoms: _40  and  _42
REMARK   19  A    between atoms: _42  and  _43
REMARK   20  A    between atoms: _42  and  _45
REMARK   21  A    between atoms: _45  and  _46
REMARK   22  A    between atoms: _51  and  _53
REMARK   23  A    between atoms: _53  and  _54
REMARK   24  A    between atoms: _53  and  _56
REMARK   25  A    between atoms: _56  and  _57
REMARK   26  A    between atoms: _59  and  _61
REMARK   27  A    between atoms: _61  and  _62
REMARK   28  A    between atoms: _61  and  _64
REMARK   29  A    between atoms: _64  and  _65
REMARK   30  A    between atoms: _65  and  _66
REMARK   31  A    between atoms: _68  and  _70
REMARK   32  A    between atoms: _70  and  _71
REMARK   33  A    between atoms: _70  and  _73
REMARK   34  A    between atoms: _73  and  _74
REMARK   35  A    between atoms: _77  and  _79
REMARK   36  A    between atoms: _79  and  _80
REMARK   37  A    between atoms: _79  and  _82
REMARK   38  A    between atoms: _82  and  _83
REMARK   39  A    between atoms: _83  and  _84
REMARK   40  A    between atoms: _86  and  _88
REMARK   41  A    between atoms: _88  and  _89
REMARK   42  A    between atoms: _88  and  _91
REMARK   43  A    between atoms: _91  and  _92
REMARK   44  A    between atoms: _92  and  _93
REMARK   45  A    between atoms: _93  and  _94
REMARK   46  A    between atoms: _94  and  _95
REMARK   47  A    between atoms: _99  and  _101
REMARK   48  A    between atoms: _101  and  _102
REMARK   49  A    between atoms: _101  and  _104
REMARK   50  A    between atoms: _104  and  _105
REMARK   51  A    between atoms: _111  and  _113
REMARK   52  A    between atoms: _113  and  _114
REMARK   53  A    between atoms: _113  and  _116
REMARK   54  A    between atoms: _116  and  _117
REMARK   55  A    between atoms: _120  and  _122
REMARK   56  A    between atoms: _122  and  _123
REMARK   57  A    between atoms: _122  and  _125
REMARK   58  A    between atoms: _125  and  _126
REMARK   59  A    between atoms: _131  and  _132
REMARK   60  A    between atoms: _134  and  _136
REMARK   61  A    between atoms: _136  and  _137
REMARK   62  A    between atoms: _136  and  _139
REMARK   63  A    between atoms: _141  and  _143
REMARK   64  A    between atoms: _143  and  _144
REMARK   65  A    between atoms: _143  and  _146
REMARK   66  A    between atoms: _146  and  _147
REMARK   67  A    between atoms: _150  and  _152
REMARK   68  A    between atoms: _152  and  _153
REMARK   69  A    between atoms: _152  and  _155
REMARK   70  A    between atoms: _155  and  _156
REMARK   71  A    between atoms: _159  and  _161
REMARK   72  A    between atoms: _161  and  _162
REMARK   73  A    between atoms: _161  and  _164
REMARK   74  A    between atoms: _164  and  _165
REMARK   75  A    between atoms: _170  and  _171
REMARK   76  A    between atoms: _173  and  _175
REMARK   77  A    between atoms: _175  and  _176
REMARK   78  A    between atoms: _175  and  _178
REMARK   79  A    between atoms: _178  and  _179
REMARK   80  A    between atoms: _182  and  _184
REMARK   81  A    between atoms: _184  and  _185
REMARK   82  A    between atoms: _184  and  _187
REMARK   83  A    between atoms: _187  and  _188
REMARK   84  A    between atoms: _188  and  _189
REMARK   85  A    between atoms: _189  and  _190
REMARK   86  A    between atoms: _199  and  _201
REMARK   87  A    between atoms: _201  and  _202
REMARK   88  A    between atoms: _201  and  _204
REMARK   89  A    between atoms: _204  and  _205
REMARK   90  A    between atoms: _207  and  _209
REMARK   91  A    between atoms: _209  and  _210
REMARK   92  A    between atoms: _213  and  _215
REMARK   93  A    between atoms: _215  and  _216
REMARK   94  A    between atoms: _215  and  _218
REMARK   95  A    between atoms: _218  and  _219
REMARK   96  A    between atoms: _224  and  _225
REMARK   97  A    between atoms: _227  and  _229
REMARK   98  A    between atoms: _229  and  _230
REMARK   99  A    between atoms: _229  and  _232
REMARK  100  A    between atoms: _232  and  _233
REMARK  101  A    between atoms: _233  and  _234
REMARK  102  A    between atoms: _237  and  _239
REMARK  103  A    between atoms: _239  and  _240
REMARK  104  A    between atoms: _239  and  _242
REMARK  105  A    between atoms: _242  and  _243
REMARK  106  A    between atoms: _249  and  _251
REMARK  107  A    between atoms: _251  and  _252
REMARK  108  A    between atoms: _251  and  _254
REMARK  109  A    between atoms: _254  and  _255
REMARK  110  A    between atoms: _260  and  _261
REMARK  111  A    between atoms: _263  and  _265
REMARK  112  A    between atoms: _265  and  _266
REMARK  113  A    between atoms: _265  and  _268
REMARK  114  A    between atoms: _268  and  _269
REMARK  115  A    between atoms: _274  and  _276
REMARK  116  A    between atoms: _276  and  _277
REMARK  117  A    between atoms: _276  and  _279
REMARK  118  A    between atoms: _279  and  _280
REMARK  119  A    between atoms: _285  and  _287
REMARK  120  A    between atoms: _287  and  _288
REMARK  121  A    between atoms: _287  and  _290
REMARK  122  A    between atoms: _290  and  _291
REMARK  123  A    between atoms: _291  and  _292
REMARK  124  A    between atoms: _294  and  _296
REMARK  125  A    between atoms: _296  and  _297
REMARK  126  A    between atoms: _296  and  _299
REMARK  127  A    between atoms: _299  and  _300
REMARK  128  A    between atoms: _303  and  _305
REMARK  129  A    between atoms: _305  and  _306
REMARK  130  A    between atoms: _305  and  _308
REMARK  131  A    between atoms: _308  and  _309
REMARK  132  A    between atoms: _309  and  _310
REMARK  133  A    between atoms: _310  and  _311
REMARK  134  A    between atoms: _311  and  _312
REMARK  135  A    between atoms: _316  and  _318
REMARK  136  A    between atoms: _318  and  _319
REMARK  137  A    between atoms: _318  and  _321
REMARK  138  A    between atoms: _321  and  _322
REMARK  139  A    between atoms: _324  and  _326
REMARK  140  A    between atoms: _326  and  _327
REMARK  141  A    between atoms: _326  and  _329
REMARK  142  A    between atoms: _329  and  _330
REMARK  143  A    between atoms: _335  and  _337
REMARK  144  A    between atoms: _337  and  _338
REMARK  145  A    between atoms: _337  and  _340
REMARK  146  A    between atoms: _340  and  _341
REMARK  147  A    between atoms: _341  and  _342
REMARK  148  A    between atoms: _347  and  _349
REMARK  149  A    between atoms: _349  and  _350
REMARK  150  A    between atoms: _349  and  _352
REMARK  151  A    between atoms: _352  and  _353
REMARK  152  A    between atoms: _358  and  _360
REMARK  153  A    between atoms: _360  and  _361
REMARK  154  A    between atoms: _360  and  _363
REMARK  155  A    between atoms: _363  and  _364
REMARK  156  A    between atoms: _367  and  _369
REMARK  157  A    between atoms: _369  and  _370
REMARK  158  A    between atoms: _369  and  _372
REMARK  159  A    between atoms: _374  and  _376
REMARK  160  A    between atoms: _376  and  _377
REMARK  161  A    between atoms: _379  and  _381
REMARK  162  A    between atoms: _381  and  _382
REMARK  163  A    between atoms: _381  and  _384
REMARK  164  A    between atoms: _384  and  _385
REMARK  165  A    between atoms: _385  and  _386
REMARK  166  A    between atoms: _391  and  _393
REMARK  167  A    between atoms: _393  and  _394
REMARK  168  A    between atoms: _393  and  _396
REMARK  169  A    between atoms: _399  and  _401
REMARK  170  A    between atoms: _401  and  _402
REMARK  171  A    between atoms: _401  and  _404
REMARK  172  A    between atoms: _407  and  _409
REMARK  173  A    between atoms: _409  and  _410
REMARK  174  A    between atoms: _409  and  _412
REMARK  175  A    between atoms: _412  and  _413
REMARK  176  A    between atoms: _415  and  _417
REMARK  177  A    between atoms: _417  and  _418
REMARK  178  A    between atoms: _420  and  _422
REMARK  179  A    between atoms: _422  and  _423
REMARK  180  A    between atoms: _422  and  _425
REMARK  181  A    between atoms: _425  and  _426
REMARK  182  A    between atoms: _431  and  _432
REMARK  183  A    between atoms: _434  and  _436
REMARK  184  A    between atoms: _436  and  _437
REMARK  185  A    between atoms: _436  and  _439
REMARK  186  A    between atoms: _439  and  _440
REMARK  187  A    between atoms: _440  and  _441
REMARK  188  A    between atoms: _441  and  _442
REMARK  189  A    between atoms: _451  and  _453
REMARK  190  A    between atoms: _453  and  _454
REMARK  191  A    between atoms: _453  and  _456
REMARK  192  A    between atoms: _456  and  _457
REMARK  193  A    between atoms: _457  and  _458
REMARK  194  A    between atoms: _460  and  _462
REMARK  195  A    between atoms: _462  and  _463
REMARK  196  A    between atoms: _462  and  _465
REMARK  197  A    between atoms: _465  and  _466
REMARK  198  A    between atoms: _469  and  _471
REMARK  199  A    between atoms: _471  and  _472
REMARK  200  A    between atoms: _471  and  _474
REMARK  201  A    between atoms: _477  and  _479
REMARK  202  A    between atoms: _479  and  _480
REMARK  203  A    between atoms: _479  and  _482
REMARK  204  A    between atoms: _482  and  _483
REMARK  205  A    between atoms: _486  and  _488
REMARK  206  A    between atoms: _488  and  _489
REMARK  207  A    between atoms: _488  and  _491
REMARK  208  A    between atoms: _491  and  _492
REMARK  209  A    between atoms: _492  and  _493
REMARK  210  A    between atoms: _496  and  _498
REMARK  211  A    between atoms: _498  and  _499
REMARK  212  A    between atoms: _498  and  _501
REMARK  213  A    between atoms: _501  and  _502
REMARK  214  A    between atoms: _505  and  _507
REMARK  215  A    between atoms: _507  and  _508
REMARK  216  A    between atoms: _507  and  _510
REMARK  217  A    between atoms: _510  and  _511
REMARK  218  A    between atoms: _511  and  _512
REMARK  219  A    between atoms: _517  and  _519
REMARK  220  A    between atoms: _519  and  _520
REMARK  221  A    between atoms: _522  and  _524
REMARK  222  A    between atoms: _524  and  _525
REMARK  223  A    between atoms: _524  and  _527
REMARK  224  A    between atoms: _527  and  _528
REMARK  225  A    between atoms: _531  and  _533
REMARK  226  A    between atoms: _533  and  _534
REMARK  227  A    between atoms: _533  and  _536
REMARK  228  A    between atoms: _539  and  _541
REMARK  229  A    between atoms: _541  and  _542
REMARK  230  A    between atoms: _541  and  _544
REMARK  231  A    between atoms: _546  and  _548
REMARK  232  A    between atoms: _548  and  _549
REMARK  233  A    between atoms: _548  and  _551
REMARK  234  A    between atoms: _551  and  _552
REMARK  235  A    between atoms: _555  and  _557
REMARK  236  A    between atoms: _557  and  _558
REMARK  237  A    between atoms: _557  and  _560
REMARK  238  A    between atoms: _560  and  _561
REMARK  239  A    between atoms: _561  and  _562
REMARK  240  A    between atoms: _564  and  _566
REMARK  241  A    between atoms: _566  and  _567
REMARK  242  A    between atoms: _566  and  _569
REMARK  243  A    between atoms: _571  and  _573
REMARK  244  A    between atoms: _573  and  _574
REMARK  245  A    between atoms: _573  and  _576
REMARK  246  A    between atoms: _579  and  _581
REMARK  247  A    between atoms: _581  and  _582
REMARK  248  A    between atoms: _581  and  _584
REMARK  249  A    between atoms: _584  and  _585
REMARK  250  A    between atoms: _590  and  _592
REMARK  251  A    between atoms: _592  and  _593
REMARK  252  A    between atoms: _592  and  _595
REMARK  253  A    between atoms: _595  and  _596
REMARK  254  A    between atoms: _601  and  _602
REMARK                            x       y       z     vdW  Elec       q    Type
REMARK                         _______ _______ _______ _____ _____    ______ ____
ROOT
ATOM      1  O   HOH     1      19.515   3.698  38.428  0.00  0.00    +0.000 OA
ENDROOT
TORSDOF 0
