REMARK  Name = ../refined-set-2016/2y5f/2y5f_pocket.pdb
REMARK  228 active torsions:
REMARK  status: ('A' for Active; 'I' for Inactive)
REMARK    1  A    between atoms: _1  and  _5
REMARK    2  A    between atoms: _5  and  _6
REMARK    3  A    between atoms: _5  and  _8
REMARK    4  A    between atoms: _8  and  _9
REMARK    5  A    between atoms: _12  and  _14
REMARK    6  A    between atoms: _14  and  _15
REMARK    7  A    between atoms: _14  and  _17
REMARK    8  A    between atoms: _20  and  _22
REMARK    9  A    between atoms: _22  and  _23
REMARK   10  A    between atoms: _22  and  _25
REMARK   11  A    between atoms: _25  and  _26
REMARK   12  A    between atoms: _32  and  _34
REMARK   13  A    between atoms: _34  and  _35
REMARK   14  A    between atoms: _34  and  _37
REMARK   15  A    between atoms: _39  and  _41
REMARK   16  A    between atoms: _41  and  _42
REMARK   17  A    between atoms: _41  and  _44
REMARK   18  A    between atoms: _44  and  _45
REMARK   19  A    between atoms: _50  and  _52
REMARK   20  A    between atoms: _52  and  _53
REMARK   21  A    between atoms: _52  and  _55
REMARK   22  A    between atoms: _55  and  _56
REMARK   23  A    between atoms: _56  and  _57
REMARK   24  A    between atoms: _62  and  _64
REMARK   25  A    between atoms: _64  and  _65
REMARK   26  A    between atoms: _64  and  _67
REMARK   27  A    between atoms: _67  and  _68
REMARK   28  A    between atoms: _74  and  _76
REMARK   29  A    between atoms: _76  and  _77
REMARK   30  A    between atoms: _76  and  _79
REMARK   31  A    between atoms: _79  and  _80
REMARK   32  A    between atoms: _83  and  _85
REMARK   33  A    between atoms: _85  and  _86
REMARK   34  A    between atoms: _85  and  _88
REMARK   35  A    between atoms: _88  and  _89
REMARK   36  A    between atoms: _89  and  _90
REMARK   37  A    between atoms: _90  and  _91
REMARK   38  A    between atoms: _91  and  _92
REMARK   39  A    between atoms: _96  and  _98
REMARK   40  A    between atoms: _98  and  _99
REMARK   41  A    between atoms: _98  and  _101
REMARK   42  A    between atoms: _101  and  _102
REMARK   43  A    between atoms: _102  and  _103
REMARK   44  A    between atoms: _106  and  _108
REMARK   45  A    between atoms: _108  and  _109
REMARK   46  A    between atoms: _108  and  _111
REMARK   47  A    between atoms: _111  and  _112
REMARK   48  A    between atoms: _115  and  _117
REMARK   49  A    between atoms: _117  and  _118
REMARK   50  A    between atoms: _117  and  _120
REMARK   51  A    between atoms: _120  and  _121
REMARK   52  A    between atoms: _126  and  _127
REMARK   53  A    between atoms: _129  and  _131
REMARK   54  A    between atoms: _131  and  _132
REMARK   55  A    between atoms: _131  and  _134
REMARK   56  A    between atoms: _134  and  _135
REMARK   57  A    between atoms: _138  and  _140
REMARK   58  A    between atoms: _140  and  _141
REMARK   59  A    between atoms: _140  and  _143
REMARK   60  A    between atoms: _143  and  _144
REMARK   61  A    between atoms: _147  and  _149
REMARK   62  A    between atoms: _149  and  _150
REMARK   63  A    between atoms: _149  and  _152
REMARK   64  A    between atoms: _155  and  _157
REMARK   65  A    between atoms: _157  and  _158
REMARK   66  A    between atoms: _157  and  _160
REMARK   67  A    between atoms: _160  and  _161
REMARK   68  A    between atoms: _161  and  _162
REMARK   69  A    between atoms: _162  and  _163
REMARK   70  A    between atoms: _172  and  _174
REMARK   71  A    between atoms: _174  and  _175
REMARK   72  A    between atoms: _174  and  _177
REMARK   73  A    between atoms: _177  and  _178
REMARK   74  A    between atoms: _183  and  _185
REMARK   75  A    between atoms: _185  and  _186
REMARK   76  A    between atoms: _185  and  _188
REMARK   77  A    between atoms: _188  and  _189
REMARK   78  A    between atoms: _189  and  _190
REMARK   79  A    between atoms: _193  and  _195
REMARK   80  A    between atoms: _195  and  _196
REMARK   81  A    between atoms: _195  and  _198
REMARK   82  A    between atoms: _198  and  _199
REMARK   83  A    between atoms: _199  and  _200
REMARK   84  A    between atoms: _200  and  _201
REMARK   85  A    between atoms: _201  and  _202
REMARK   86  A    between atoms: _206  and  _208
REMARK   87  A    between atoms: _208  and  _209
REMARK   88  A    between atoms: _211  and  _213
REMARK   89  A    between atoms: _213  and  _214
REMARK   90  A    between atoms: _213  and  _216
REMARK   91  A    between atoms: _219  and  _221
REMARK   92  A    between atoms: _221  and  _222
REMARK   93  A    between atoms: _221  and  _224
REMARK   94  A    between atoms: _224  and  _225
REMARK   95  A    between atoms: _227  and  _229
REMARK   96  A    between atoms: _229  and  _230
REMARK   97  A    between atoms: _229  and  _232
REMARK   98  A    between atoms: _232  and  _233
REMARK   99  A    between atoms: _235  and  _237
REMARK  100  A    between atoms: _237  and  _238
REMARK  101  A    between atoms: _237  and  _240
REMARK  102  A    between atoms: _240  and  _241
REMARK  103  A    between atoms: _247  and  _249
REMARK  104  A    between atoms: _249  and  _250
REMARK  105  A    between atoms: _249  and  _252
REMARK  106  A    between atoms: _252  and  _253
REMARK  107  A    between atoms: _256  and  _258
REMARK  108  A    between atoms: _258  and  _259
REMARK  109  A    between atoms: _258  and  _261
REMARK  110  A    between atoms: _261  and  _262
REMARK  111  A    between atoms: _265  and  _267
REMARK  112  A    between atoms: _267  and  _268
REMARK  113  A    between atoms: _267  and  _270
REMARK  114  A    between atoms: _270  and  _271
REMARK  115  A    between atoms: _271  and  _272
REMARK  116  A    between atoms: _274  and  _276
REMARK  117  A    between atoms: _276  and  _277
REMARK  118  A    between atoms: _276  and  _279
REMARK  119  A    between atoms: _279  and  _280
REMARK  120  A    between atoms: _286  and  _288
REMARK  121  A    between atoms: _288  and  _289
REMARK  122  A    between atoms: _288  and  _291
REMARK  123  A    between atoms: _293  and  _295
REMARK  124  A    between atoms: _295  and  _296
REMARK  125  A    between atoms: _299  and  _301
REMARK  126  A    between atoms: _301  and  _302
REMARK  127  A    between atoms: _304  and  _306
REMARK  128  A    between atoms: _306  and  _307
REMARK  129  A    between atoms: _306  and  _309
REMARK  130  A    between atoms: _309  and  _310
REMARK  131  A    between atoms: _310  and  _311
REMARK  132  A    between atoms: _314  and  _316
REMARK  133  A    between atoms: _316  and  _317
REMARK  134  A    between atoms: _316  and  _319
REMARK  135  A    between atoms: _319  and  _320
REMARK  136  A    between atoms: _323  and  _325
REMARK  137  A    between atoms: _325  and  _326
REMARK  138  A    between atoms: _329  and  _331
REMARK  139  A    between atoms: _331  and  _332
REMARK  140  A    between atoms: _331  and  _334
REMARK  141  A    between atoms: _334  and  _335
REMARK  142  A    between atoms: _335  and  _458
REMARK  143  A    between atoms: _336  and  _338
REMARK  144  A    between atoms: _338  and  _339
REMARK  145  A    between atoms: _338  and  _341
REMARK  146  A    between atoms: _341  and  _342
REMARK  147  A    between atoms: _342  and  _343
REMARK  148  A    between atoms: _348  and  _350
REMARK  149  A    between atoms: _350  and  _351
REMARK  150  A    between atoms: _353  and  _355
REMARK  151  A    between atoms: _355  and  _356
REMARK  152  A    between atoms: _355  and  _358
REMARK  153  A    between atoms: _358  and  _359
REMARK  154  A    between atoms: _362  and  _364
REMARK  155  A    between atoms: _364  and  _365
REMARK  156  A    between atoms: _364  and  _367
REMARK  157  A    between atoms: _367  and  _368
REMARK  158  A    between atoms: _370  and  _372
REMARK  159  A    between atoms: _372  and  _373
REMARK  160  A    between atoms: _375  and  _377
REMARK  161  A    between atoms: _377  and  _378
REMARK  162  A    between atoms: _380  and  _382
REMARK  163  A    between atoms: _382  and  _383
REMARK  164  A    between atoms: _382  and  _385
REMARK  165  A    between atoms: _385  and  _386
REMARK  166  A    between atoms: _391  and  _393
REMARK  167  A    between atoms: _393  and  _394
REMARK  168  A    between atoms: _393  and  _396
REMARK  169  A    between atoms: _396  and  _397
REMARK  170  A    between atoms: _400  and  _402
REMARK  171  A    between atoms: _402  and  _403
REMARK  172  A    between atoms: _402  and  _405
REMARK  173  A    between atoms: _408  and  _410
REMARK  174  A    between atoms: _410  and  _411
REMARK  175  A    between atoms: _410  and  _413
REMARK  176  A    between atoms: _413  and  _414
REMARK  177  A    between atoms: _416  and  _418
REMARK  178  A    between atoms: _418  and  _419
REMARK  179  A    between atoms: _418  and  _421
REMARK  180  A    between atoms: _421  and  _422
REMARK  181  A    between atoms: _432  and  _434
REMARK  182  A    between atoms: _434  and  _435
REMARK  183  A    between atoms: _437  and  _439
REMARK  184  A    between atoms: _439  and  _440
REMARK  185  A    between atoms: _439  and  _442
REMARK  186  A    between atoms: _442  and  _443
REMARK  187  A    between atoms: _443  and  _444
REMARK  188  A    between atoms: _447  and  _449
REMARK  189  A    between atoms: _449  and  _450
REMARK  190  A    between atoms: _452  and  _454
REMARK  191  A    between atoms: _454  and  _455
REMARK  192  A    between atoms: _454  and  _457
REMARK  193  A    between atoms: _457  and  _458
REMARK  194  A    between atoms: _459  and  _461
REMARK  195  A    between atoms: _461  and  _462
REMARK  196  A    between atoms: _465  and  _467
REMARK  197  A    between atoms: _467  and  _468
REMARK  198  A    between atoms: _467  and  _470
REMARK  199  A    between atoms: _470  and  _471
REMARK  200  A    between atoms: _471  and  _472
REMARK  201  A    between atoms: _472  and  _473
REMARK  202  A    between atoms: _482  and  _484
REMARK  203  A    between atoms: _484  and  _485
REMARK  204  A    between atoms: _484  and  _487
REMARK  205  A    between atoms: _487  and  _488
REMARK  206  A    between atoms: _488  and  _489
REMARK  207  A    between atoms: _489  and  _490
REMARK  208  A    between atoms: _490  and  _491
REMARK  209  A    between atoms: _495  and  _497
REMARK  210  A    between atoms: _497  and  _498
REMARK  211  A    between atoms: _497  and  _500
REMARK  212  A    between atoms: _500  and  _501
REMARK  213  A    between atoms: _506  and  _507
REMARK  214  A    between atoms: _509  and  _511
REMARK  215  A    between atoms: _511  and  _512
REMARK  216  A    between atoms: _514  and  _516
REMARK  217  A    between atoms: _516  and  _517
REMARK  218  A    between atoms: _516  and  _519
REMARK  219  A    between atoms: _519  and  _520
REMARK  220  A    between atoms: _523  and  _525
REMARK  221  A    between atoms: _525  and  _526
REMARK  222  A    between atoms: _525  and  _528
REMARK  223  A    between atoms: _528  and  _529
REMARK  224  A    between atoms: _534  and  _535
REMARK  225  A    between atoms: _537  and  _539
REMARK  226  A    between atoms: _539  and  _540
REMARK  227  A    between atoms: _539  and  _542
REMARK  228  A    between atoms: _542  and  _543
REMARK                            x       y       z     vdW  Elec       q    Type
REMARK                         _______ _______ _______ _____ _____    ______ ____
ROOT
ATOM      1  C   ILE A   1       1.562  12.504  34.994  0.00  0.00    +0.202 C 
ATOM      2  O   ILE A   1       1.897  13.504  35.630  0.00  0.00    -0.277 OA
ATOM      3  N   VAL A   2       0.368  11.936  35.105  0.00  0.00    -0.301 N 
ATOM      4  H   VAL A   2       0.148  11.139  34.474  0.00  0.00    +0.150 HD
ENDROOT
BRANCH   1   5
ATOM      5  CA  ILE A   1       2.529  11.833  34.002  0.00  0.00    +0.013 C 
BRANCH   5   6
ATOM      6  N   ILE A   1       2.951  12.839  32.981  0.00  0.00    +0.387 N 
ATOM      7  H1  ILE A   1       3.428  13.633  33.455  0.00  0.00    -0.089 HD
ATOM      8  H2  ILE A   1       2.113  13.189  32.474  0.00  0.00    -0.089 HD
ATOM      9  H3  ILE A   1       3.605  12.393  32.306  0.00  0.00    -0.089 HD
ENDBRANCH   5   6
BRANCH   5  10
ATOM     10  CB  ILE A   1       3.723  11.214  34.767  0.00  0.00    -0.011 C 
ATOM     11  CG2 ILE A   1       3.230  10.220  35.819  0.00  0.00    -0.002 C 
BRANCH  10  12
ATOM     12  CG1 ILE A   1       4.750  10.606  33.781  0.00  0.00    -0.002 C 
ATOM     13  CD1 ILE A   1       4.323   9.300  33.157  0.00  0.00    -0.000 C 
ENDBRANCH  10  12
ENDBRANCH   5  10
ENDBRANCH   1   5
BRANCH   3  14
ATOM     14  CA  VAL A   2      -0.650  12.355  36.049  0.00  0.00    +0.137 C 
BRANCH  14  15
ATOM     15  CB  VAL A   2      -2.059  12.147  35.451  0.00  0.00    +0.026 C 
ATOM     16  CG2 VAL A   2      -3.176  12.690  36.372  0.00  0.00    +0.002 C 
ATOM     17  CG1 VAL A   2      -2.153  12.818  34.065  0.00  0.00    +0.002 C 
ENDBRANCH  14  15
BRANCH  14  18
ATOM     18  C   VAL A   2      -0.507  11.455  37.307  0.00  0.00    +0.227 C 
ATOM     19  O   VAL A   2      -0.526  10.225  37.222  0.00  0.00    -0.286 OA
ENDBRANCH  14  18
ENDBRANCH   3  14
TORSDOF 7
REMARK  Name = ../refined-set-2016/2y5f/2y5f_pocket.pdb
REMARK  228 active torsions:
REMARK  status: ('A' for Active; 'I' for Inactive)
REMARK    1  A    between atoms: _1  and  _5
REMARK    2  A    between atoms: _5  and  _6
REMARK    3  A    between atoms: _5  and  _8
REMARK    4  A    between atoms: _8  and  _9
REMARK    5  A    between atoms: _12  and  _14
REMARK    6  A    between atoms: _14  and  _15
REMARK    7  A    between atoms: _14  and  _17
REMARK    8  A    between atoms: _20  and  _22
REMARK    9  A    between atoms: _22  and  _23
REMARK   10  A    between atoms: _22  and  _25
REMARK   11  A    between atoms: _25  and  _26
REMARK   12  A    between atoms: _32  and  _34
REMARK   13  A    between atoms: _34  and  _35
REMARK   14  A    between atoms: _34  and  _37
REMARK   15  A    between atoms: _39  and  _41
REMARK   16  A    between atoms: _41  and  _42
REMARK   17  A    between atoms: _41  and  _44
REMARK   18  A    between atoms: _44  and  _45
REMARK   19  A    between atoms: _50  and  _52
REMARK   20  A    between atoms: _52  and  _53
REMARK   21  A    between atoms: _52  and  _55
REMARK   22  A    between atoms: _55  and  _56
REMARK   23  A    between atoms: _56  and  _57
REMARK   24  A    between atoms: _62  and  _64
REMARK   25  A    between atoms: _64  and  _65
REMARK   26  A    between atoms: _64  and  _67
REMARK   27  A    between atoms: _67  and  _68
REMARK   28  A    between atoms: _74  and  _76
REMARK   29  A    between atoms: _76  and  _77
REMARK   30  A    between atoms: _76  and  _79
REMARK   31  A    between atoms: _79  and  _80
REMARK   32  A    between atoms: _83  and  _85
REMARK   33  A    between atoms: _85  and  _86
REMARK   34  A    between atoms: _85  and  _88
REMARK   35  A    between atoms: _88  and  _89
REMARK   36  A    between atoms: _89  and  _90
REMARK   37  A    between atoms: _90  and  _91
REMARK   38  A    between atoms: _91  and  _92
REMARK   39  A    between atoms: _96  and  _98
REMARK   40  A    between atoms: _98  and  _99
REMARK   41  A    between atoms: _98  and  _101
REMARK   42  A    between atoms: _101  and  _102
REMARK   43  A    between atoms: _102  and  _103
REMARK   44  A    between atoms: _106  and  _108
REMARK   45  A    between atoms: _108  and  _109
REMARK   46  A    between atoms: _108  and  _111
REMARK   47  A    between atoms: _111  and  _112
REMARK   48  A    between atoms: _115  and  _117
REMARK   49  A    between atoms: _117  and  _118
REMARK   50  A    between atoms: _117  and  _120
REMARK   51  A    between atoms: _120  and  _121
REMARK   52  A    between atoms: _126  and  _127
REMARK   53  A    between atoms: _129  and  _131
REMARK   54  A    between atoms: _131  and  _132
REMARK   55  A    between atoms: _131  and  _134
REMARK   56  A    between atoms: _134  and  _135
REMARK   57  A    between atoms: _138  and  _140
REMARK   58  A    between atoms: _140  and  _141
REMARK   59  A    between atoms: _140  and  _143
REMARK   60  A    between atoms: _143  and  _144
REMARK   61  A    between atoms: _147  and  _149
REMARK   62  A    between atoms: _149  and  _150
REMARK   63  A    between atoms: _149  and  _152
REMARK   64  A    between atoms: _155  and  _157
REMARK   65  A    between atoms: _157  and  _158
REMARK   66  A    between atoms: _157  and  _160
REMARK   67  A    between atoms: _160  and  _161
REMARK   68  A    between atoms: _161  and  _162
REMARK   69  A    between atoms: _162  and  _163
REMARK   70  A    between atoms: _172  and  _174
REMARK   71  A    between atoms: _174  and  _175
REMARK   72  A    between atoms: _174  and  _177
REMARK   73  A    between atoms: _177  and  _178
REMARK   74  A    between atoms: _183  and  _185
REMARK   75  A    between atoms: _185  and  _186
REMARK   76  A    between atoms: _185  and  _188
REMARK   77  A    between atoms: _188  and  _189
REMARK   78  A    between atoms: _189  and  _190
REMARK   79  A    between atoms: _193  and  _195
REMARK   80  A    between atoms: _195  and  _196
REMARK   81  A    between atoms: _195  and  _198
REMARK   82  A    between atoms: _198  and  _199
REMARK   83  A    between atoms: _199  and  _200
REMARK   84  A    between atoms: _200  and  _201
REMARK   85  A    between atoms: _201  and  _202
REMARK   86  A    between atoms: _206  and  _208
REMARK   87  A    between atoms: _208  and  _209
REMARK   88  A    between atoms: _211  and  _213
REMARK   89  A    between atoms: _213  and  _214
REMARK   90  A    between atoms: _213  and  _216
REMARK   91  A    between atoms: _219  and  _221
REMARK   92  A    between atoms: _221  and  _222
REMARK   93  A    between atoms: _221  and  _224
REMARK   94  A    between atoms: _224  and  _225
REMARK   95  A    between atoms: _227  and  _229
REMARK   96  A    between atoms: _229  and  _230
REMARK   97  A    between atoms: _229  and  _232
REMARK   98  A    between atoms: _232  and  _233
REMARK   99  A    between atoms: _235  and  _237
REMARK  100  A    between atoms: _237  and  _238
REMARK  101  A    between atoms: _237  and  _240
REMARK  102  A    between atoms: _240  and  _241
REMARK  103  A    between atoms: _247  and  _249
REMARK  104  A    between atoms: _249  and  _250
REMARK  105  A    between atoms: _249  and  _252
REMARK  106  A    between atoms: _252  and  _253
REMARK  107  A    between atoms: _256  and  _258
REMARK  108  A    between atoms: _258  and  _259
REMARK  109  A    between atoms: _258  and  _261
REMARK  110  A    between atoms: _261  and  _262
REMARK  111  A    between atoms: _265  and  _267
REMARK  112  A    between atoms: _267  and  _268
REMARK  113  A    between atoms: _267  and  _270
REMARK  114  A    between atoms: _270  and  _271
REMARK  115  A    between atoms: _271  and  _272
REMARK  116  A    between atoms: _274  and  _276
REMARK  117  A    between atoms: _276  and  _277
REMARK  118  A    between atoms: _276  and  _279
REMARK  119  A    between atoms: _279  and  _280
REMARK  120  A    between atoms: _286  and  _288
REMARK  121  A    between atoms: _288  and  _289
REMARK  122  A    between atoms: _288  and  _291
REMARK  123  A    between atoms: _293  and  _295
REMARK  124  A    between atoms: _295  and  _296
REMARK  125  A    between atoms: _299  and  _301
REMARK  126  A    between atoms: _301  and  _302
REMARK  127  A    between atoms: _304  and  _306
REMARK  128  A    between atoms: _306  and  _307
REMARK  129  A    between atoms: _306  and  _309
REMARK  130  A    between atoms: _309  and  _310
REMARK  131  A    between atoms: _310  and  _311
REMARK  132  A    between atoms: _314  and  _316
REMARK  133  A    between atoms: _316  and  _317
REMARK  134  A    between atoms: _316  and  _319
REMARK  135  A    between atoms: _319  and  _320
REMARK  136  A    between atoms: _323  and  _325
REMARK  137  A    between atoms: _325  and  _326
REMARK  138  A    between atoms: _329  and  _331
REMARK  139  A    between atoms: _331  and  _332
REMARK  140  A    between atoms: _331  and  _334
REMARK  141  A    between atoms: _334  and  _335
REMARK  142  A    between atoms: _335  and  _458
REMARK  143  A    between atoms: _336  and  _338
REMARK  144  A    between atoms: _338  and  _339
REMARK  145  A    between atoms: _338  and  _341
REMARK  146  A    between atoms: _341  and  _342
REMARK  147  A    between atoms: _342  and  _343
REMARK  148  A    between atoms: _348  and  _350
REMARK  149  A    between atoms: _350  and  _351
REMARK  150  A    between atoms: _353  and  _355
REMARK  151  A    between atoms: _355  and  _356
REMARK  152  A    between atoms: _355  and  _358
REMARK  153  A    between atoms: _358  and  _359
REMARK  154  A    between atoms: _362  and  _364
REMARK  155  A    between atoms: _364  and  _365
REMARK  156  A    between atoms: _364  and  _367
REMARK  157  A    between atoms: _367  and  _368
REMARK  158  A    between atoms: _370  and  _372
REMARK  159  A    between atoms: _372  and  _373
REMARK  160  A    between atoms: _375  and  _377
REMARK  161  A    between atoms: _377  and  _378
REMARK  162  A    between atoms: _380  and  _382
REMARK  163  A    between atoms: _382  and  _383
REMARK  164  A    between atoms: _382  and  _385
REMARK  165  A    between atoms: _385  and  _386
REMARK  166  A    between atoms: _391  and  _393
REMARK  167  A    between atoms: _393  and  _394
REMARK  168  A    between atoms: _393  and  _396
REMARK  169  A    between atoms: _396  and  _397
REMARK  170  A    between atoms: _400  and  _402
REMARK  171  A    between atoms: _402  and  _403
REMARK  172  A    between atoms: _402  and  _405
REMARK  173  A    between atoms: _408  and  _410
REMARK  174  A    between atoms: _410  and  _411
REMARK  175  A    between atoms: _410  and  _413
REMARK  176  A    between atoms: _413  and  _414
REMARK  177  A    between atoms: _416  and  _418
REMARK  178  A    between atoms: _418  and  _419
REMARK  179  A    between atoms: _418  and  _421
REMARK  180  A    between atoms: _421  and  _422
REMARK  181  A    between atoms: _432  and  _434
REMARK  182  A    between atoms: _434  and  _435
REMARK  183  A    between atoms: _437  and  _439
REMARK  184  A    between atoms: _439  and  _440
REMARK  185  A    between atoms: _439  and  _442
REMARK  186  A    between atoms: _442  and  _443
REMARK  187  A    between atoms: _443  and  _444
REMARK  188  A    between atoms: _447  and  _449
REMARK  189  A    between atoms: _449  and  _450
REMARK  190  A    between atoms: _452  and  _454
REMARK  191  A    between atoms: _454  and  _455
REMARK  192  A    between atoms: _454  and  _457
REMARK  193  A    between atoms: _457  and  _458
REMARK  194  A    between atoms: _459  and  _461
REMARK  195  A    between atoms: _461  and  _462
REMARK  196  A    between atoms: _465  and  _467
REMARK  197  A    between atoms: _467  and  _468
REMARK  198  A    between atoms: _467  and  _470
REMARK  199  A    between atoms: _470  and  _471
REMARK  200  A    between atoms: _471  and  _472
REMARK  201  A    between atoms: _472  and  _473
REMARK  202  A    between atoms: _482  and  _484
REMARK  203  A    between atoms: _484  and  _485
REMARK  204  A    between atoms: _484  and  _487
REMARK  205  A    between atoms: _487  and  _488
REMARK  206  A    between atoms: _488  and  _489
REMARK  207  A    between atoms: _489  and  _490
REMARK  208  A    between atoms: _490  and  _491
REMARK  209  A    between atoms: _495  and  _497
REMARK  210  A    between atoms: _497  and  _498
REMARK  211  A    between atoms: _497  and  _500
REMARK  212  A    between atoms: _500  and  _501
REMARK  213  A    between atoms: _506  and  _507
REMARK  214  A    between atoms: _509  and  _511
REMARK  215  A    between atoms: _511  and  _512
REMARK  216  A    between atoms: _514  and  _516
REMARK  217  A    between atoms: _516  and  _517
REMARK  218  A    between atoms: _516  and  _519
REMARK  219  A    between atoms: _519  and  _520
REMARK  220  A    between atoms: _523  and  _525
REMARK  221  A    between atoms: _525  and  _526
REMARK  222  A    between atoms: _525  and  _528
REMARK  223  A    between atoms: _528  and  _529
REMARK  224  A    between atoms: _534  and  _535
REMARK  225  A    between atoms: _537  and  _539
REMARK  226  A    between atoms: _539  and  _540
REMARK  227  A    between atoms: _539  and  _542
REMARK  228  A    between atoms: _542  and  _543
REMARK                            x       y       z     vdW  Elec       q    Type
REMARK                         _______ _______ _______ _____ _____    ______ ____
ROOT
ATOM      1  CA  PHE A   1       7.115  16.787  22.805  0.00  0.00    +0.149 C 
ENDROOT
BRANCH   1   2
ATOM      2  C   PHE A   1       6.798  15.274  22.871  0.00  0.00    +0.239 C 
ATOM      3  N   CYS A   2       7.815  14.455  23.132  0.00  0.00    -0.297 N 
ATOM      4  H   CYS A   2       8.754  14.864  23.310  0.00  0.00    +0.150 HD
ATOM      5  O   PHE A   1       5.660  14.876  22.644  0.00  0.00    -0.274 OA
BRANCH   3   6
ATOM      6  CA  CYS A   2       7.661  13.006  23.178  0.00  0.00    +0.149 C 
BRANCH   6   7
ATOM      7  C   CYS A   2       8.841  12.448  23.955  0.00  0.00    +0.228 C 
ATOM      8  O   CYS A   2       9.894  13.091  24.069  0.00  0.00    -0.286 OA
ENDBRANCH   6   7
BRANCH   6   9
ATOM      9  CB  CYS A   2       7.647  12.371  21.781  0.00  0.00    +0.096 C 
ATOM     10  SG  CYS A   2       6.034  12.201  20.905  0.00  0.00    -0.080 S 
ENDBRANCH   6   9
ENDBRANCH   3   6
ENDBRANCH   1   2
BRANCH   1  11
ATOM     11  N   PHE A   1       8.461  17.106  23.309  0.00  0.00    -0.238 NA
ATOM     12  H   PHE A   1       9.271  16.536  22.991  0.00  0.00    +0.142 HD
ENDBRANCH   1  11
BRANCH   1  13
ATOM     13  CB  PHE A   1       6.916  17.329  21.370  0.00  0.00    +0.053 C 
BRANCH  13  14
ATOM     14  CG  PHE A   1       7.796  16.668  20.356  0.00  0.00    -0.020 A 
ATOM     15  CD2 PHE A   1       9.093  17.112  20.152  0.00  0.00    -0.004 A 
ATOM     16  CE2 PHE A   1       9.933  16.473  19.220  0.00  0.00    -0.000 A 
ATOM     17  CZ  PHE A   1       9.464  15.363  18.505  0.00  0.00    -0.000 A 
ATOM     18  CE1 PHE A   1       8.166  14.908  18.721  0.00  0.00    -0.000 A 
ATOM     19  CD1 PHE A   1       7.343  15.559  19.647  0.00  0.00    -0.004 A 
ENDBRANCH  13  14
ENDBRANCH   1  13
TORSDOF 7
REMARK  Name = ../refined-set-2016/2y5f/2y5f_pocket.pdb
REMARK  228 active torsions:
REMARK  status: ('A' for Active; 'I' for Inactive)
REMARK    1  A    between atoms: _1  and  _5
REMARK    2  A    between atoms: _5  and  _6
REMARK    3  A    between atoms: _5  and  _8
REMARK    4  A    between atoms: _8  and  _9
REMARK    5  A    between atoms: _12  and  _14
REMARK    6  A    between atoms: _14  and  _15
REMARK    7  A    between atoms: _14  and  _17
REMARK    8  A    between atoms: _20  and  _22
REMARK    9  A    between atoms: _22  and  _23
REMARK   10  A    between atoms: _22  and  _25
REMARK   11  A    between atoms: _25  and  _26
REMARK   12  A    between atoms: _32  and  _34
REMARK   13  A    between atoms: _34  and  _35
REMARK   14  A    between atoms: _34  and  _37
REMARK   15  A    between atoms: _39  and  _41
REMARK   16  A    between atoms: _41  and  _42
REMARK   17  A    between atoms: _41  and  _44
REMARK   18  A    between atoms: _44  and  _45
REMARK   19  A    between atoms: _50  and  _52
REMARK   20  A    between atoms: _52  and  _53
REMARK   21  A    between atoms: _52  and  _55
REMARK   22  A    between atoms: _55  and  _56
REMARK   23  A    between atoms: _56  and  _57
REMARK   24  A    between atoms: _62  and  _64
REMARK   25  A    between atoms: _64  and  _65
REMARK   26  A    between atoms: _64  and  _67
REMARK   27  A    between atoms: _67  and  _68
REMARK   28  A    between atoms: _74  and  _76
REMARK   29  A    between atoms: _76  and  _77
REMARK   30  A    between atoms: _76  and  _79
REMARK   31  A    between atoms: _79  and  _80
REMARK   32  A    between atoms: _83  and  _85
REMARK   33  A    between atoms: _85  and  _86
REMARK   34  A    between atoms: _85  and  _88
REMARK   35  A    between atoms: _88  and  _89
REMARK   36  A    between atoms: _89  and  _90
REMARK   37  A    between atoms: _90  and  _91
REMARK   38  A    between atoms: _91  and  _92
REMARK   39  A    between atoms: _96  and  _98
REMARK   40  A    between atoms: _98  and  _99
REMARK   41  A    between atoms: _98  and  _101
REMARK   42  A    between atoms: _101  and  _102
REMARK   43  A    between atoms: _102  and  _103
REMARK   44  A    between atoms: _106  and  _108
REMARK   45  A    between atoms: _108  and  _109
REMARK   46  A    between atoms: _108  and  _111
REMARK   47  A    between atoms: _111  and  _112
REMARK   48  A    between atoms: _115  and  _117
REMARK   49  A    between atoms: _117  and  _118
REMARK   50  A    between atoms: _117  and  _120
REMARK   51  A    between atoms: _120  and  _121
REMARK   52  A    between atoms: _126  and  _127
REMARK   53  A    between atoms: _129  and  _131
REMARK   54  A    between atoms: _131  and  _132
REMARK   55  A    between atoms: _131  and  _134
REMARK   56  A    between atoms: _134  and  _135
REMARK   57  A    between atoms: _138  and  _140
REMARK   58  A    between atoms: _140  and  _141
REMARK   59  A    between atoms: _140  and  _143
REMARK   60  A    between atoms: _143  and  _144
REMARK   61  A    between atoms: _147  and  _149
REMARK   62  A    between atoms: _149  and  _150
REMARK   63  A    between atoms: _149  and  _152
REMARK   64  A    between atoms: _155  and  _157
REMARK   65  A    between atoms: _157  and  _158
REMARK   66  A    between atoms: _157  and  _160
REMARK   67  A    between atoms: _160  and  _161
REMARK   68  A    between atoms: _161  and  _162
REMARK   69  A    between atoms: _162  and  _163
REMARK   70  A    between atoms: _172  and  _174
REMARK   71  A    between atoms: _174  and  _175
REMARK   72  A    between atoms: _174  and  _177
REMARK   73  A    between atoms: _177  and  _178
REMARK   74  A    between atoms: _183  and  _185
REMARK   75  A    between atoms: _185  and  _186
REMARK   76  A    between atoms: _185  and  _188
REMARK   77  A    between atoms: _188  and  _189
REMARK   78  A    between atoms: _189  and  _190
REMARK   79  A    between atoms: _193  and  _195
REMARK   80  A    between atoms: _195  and  _196
REMARK   81  A    between atoms: _195  and  _198
REMARK   82  A    between atoms: _198  and  _199
REMARK   83  A    between atoms: _199  and  _200
REMARK   84  A    between atoms: _200  and  _201
REMARK   85  A    between atoms: _201  and  _202
REMARK   86  A    between atoms: _206  and  _208
REMARK   87  A    between atoms: _208  and  _209
REMARK   88  A    between atoms: _211  and  _213
REMARK   89  A    between atoms: _213  and  _214
REMARK   90  A    between atoms: _213  and  _216
REMARK   91  A    between atoms: _219  and  _221
REMARK   92  A    between atoms: _221  and  _222
REMARK   93  A    between atoms: _221  and  _224
REMARK   94  A    between atoms: _224  and  _225
REMARK   95  A    between atoms: _227  and  _229
REMARK   96  A    between atoms: _229  and  _230
REMARK   97  A    between atoms: _229  and  _232
REMARK   98  A    between atoms: _232  and  _233
REMARK   99  A    between atoms: _235  and  _237
REMARK  100  A    between atoms: _237  and  _238
REMARK  101  A    between atoms: _237  and  _240
REMARK  102  A    between atoms: _240  and  _241
REMARK  103  A    between atoms: _247  and  _249
REMARK  104  A    between atoms: _249  and  _250
REMARK  105  A    between atoms: _249  and  _252
REMARK  106  A    between atoms: _252  and  _253
REMARK  107  A    between atoms: _256  and  _258
REMARK  108  A    between atoms: _258  and  _259
REMARK  109  A    between atoms: _258  and  _261
REMARK  110  A    between atoms: _261  and  _262
REMARK  111  A    between atoms: _265  and  _267
REMARK  112  A    between atoms: _267  and  _268
REMARK  113  A    between atoms: _267  and  _270
REMARK  114  A    between atoms: _270  and  _271
REMARK  115  A    between atoms: _271  and  _272
REMARK  116  A    between atoms: _274  and  _276
REMARK  117  A    between atoms: _276  and  _277
REMARK  118  A    between atoms: _276  and  _279
REMARK  119  A    between atoms: _279  and  _280
REMARK  120  A    between atoms: _286  and  _288
REMARK  121  A    between atoms: _288  and  _289
REMARK  122  A    between atoms: _288  and  _291
REMARK  123  A    between atoms: _293  and  _295
REMARK  124  A    between atoms: _295  and  _296
REMARK  125  A    between atoms: _299  and  _301
REMARK  126  A    between atoms: _301  and  _302
REMARK  127  A    between atoms: _304  and  _306
REMARK  128  A    between atoms: _306  and  _307
REMARK  129  A    between atoms: _306  and  _309
REMARK  130  A    between atoms: _309  and  _310
REMARK  131  A    between atoms: _310  and  _311
REMARK  132  A    between atoms: _314  and  _316
REMARK  133  A    between atoms: _316  and  _317
REMARK  134  A    between atoms: _316  and  _319
REMARK  135  A    between atoms: _319  and  _320
REMARK  136  A    between atoms: _323  and  _325
REMARK  137  A    between atoms: _325  and  _326
REMARK  138  A    between atoms: _329  and  _331
REMARK  139  A    between atoms: _331  and  _332
REMARK  140  A    between atoms: _331  and  _334
REMARK  141  A    between atoms: _334  and  _335
REMARK  142  A    between atoms: _335  and  _458
REMARK  143  A    between atoms: _336  and  _338
REMARK  144  A    between atoms: _338  and  _339
REMARK  145  A    between atoms: _338  and  _341
REMARK  146  A    between atoms: _341  and  _342
REMARK  147  A    between atoms: _342  and  _343
REMARK  148  A    between atoms: _348  and  _350
REMARK  149  A    between atoms: _350  and  _351
REMARK  150  A    between atoms: _353  and  _355
REMARK  151  A    between atoms: _355  and  _356
REMARK  152  A    between atoms: _355  and  _358
REMARK  153  A    between atoms: _358  and  _359
REMARK  154  A    between atoms: _362  and  _364
REMARK  155  A    between atoms: _364  and  _365
REMARK  156  A    between atoms: _364  and  _367
REMARK  157  A    between atoms: _367  and  _368
REMARK  158  A    between atoms: _370  and  _372
REMARK  159  A    between atoms: _372  and  _373
REMARK  160  A    between atoms: _375  and  _377
REMARK  161  A    between atoms: _377  and  _378
REMARK  162  A    between atoms: _380  and  _382
REMARK  163  A    between atoms: _382  and  _383
REMARK  164  A    between atoms: _382  and  _385
REMARK  165  A    between atoms: _385  and  _386
REMARK  166  A    between atoms: _391  and  _393
REMARK  167  A    between atoms: _393  and  _394
REMARK  168  A    between atoms: _393  and  _396
REMARK  169  A    between atoms: _396  and  _397
REMARK  170  A    between atoms: _400  and  _402
REMARK  171  A    between atoms: _402  and  _403
REMARK  172  A    between atoms: _402  and  _405
REMARK  173  A    between atoms: _408  and  _410
REMARK  174  A    between atoms: _410  and  _411
REMARK  175  A    between atoms: _410  and  _413
REMARK  176  A    between atoms: _413  and  _414
REMARK  177  A    between atoms: _416  and  _418
REMARK  178  A    between atoms: _418  and  _419
REMARK  179  A    between atoms: _418  and  _421
REMARK  180  A    between atoms: _421  and  _422
REMARK  181  A    between atoms: _432  and  _434
REMARK  182  A    between atoms: _434  and  _435
REMARK  183  A    between atoms: _437  and  _439
REMARK  184  A    between atoms: _439  and  _440
REMARK  185  A    between atoms: _439  and  _442
REMARK  186  A    between atoms: _442  and  _443
REMARK  187  A    between atoms: _443  and  _444
REMARK  188  A    between atoms: _447  and  _449
REMARK  189  A    between atoms: _449  and  _450
REMARK  190  A    between atoms: _452  and  _454
REMARK  191  A    between atoms: _454  and  _455
REMARK  192  A    between atoms: _454  and  _457
REMARK  193  A    between atoms: _457  and  _458
REMARK  194  A    between atoms: _459  and  _461
REMARK  195  A    between atoms: _461  and  _462
REMARK  196  A    between atoms: _465  and  _467
REMARK  197  A    between atoms: _467  and  _468
REMARK  198  A    between atoms: _467  and  _470
REMARK  199  A    between atoms: _470  and  _471
REMARK  200  A    between atoms: _471  and  _472
REMARK  201  A    between atoms: _472  and  _473
REMARK  202  A    between atoms: _482  and  _484
REMARK  203  A    between atoms: _484  and  _485
REMARK  204  A    between atoms: _484  and  _487
REMARK  205  A    between atoms: _487  and  _488
REMARK  206  A    between atoms: _488  and  _489
REMARK  207  A    between atoms: _489  and  _490
REMARK  208  A    between atoms: _490  and  _491
REMARK  209  A    between atoms: _495  and  _497
REMARK  210  A    between atoms: _497  and  _498
REMARK  211  A    between atoms: _497  and  _500
REMARK  212  A    between atoms: _500  and  _501
REMARK  213  A    between atoms: _506  and  _507
REMARK  214  A    between atoms: _509  and  _511
REMARK  215  A    between atoms: _511  and  _512
REMARK  216  A    between atoms: _514  and  _516
REMARK  217  A    between atoms: _516  and  _517
REMARK  218  A    between atoms: _516  and  _519
REMARK  219  A    between atoms: _519  and  _520
REMARK  220  A    between atoms: _523  and  _525
REMARK  221  A    between atoms: _525  and  _526
REMARK  222  A    between atoms: _525  and  _528
REMARK  223  A    between atoms: _528  and  _529
REMARK  224  A    between atoms: _534  and  _535
REMARK  225  A    between atoms: _537  and  _539
REMARK  226  A    between atoms: _539  and  _540
REMARK  227  A    between atoms: _539  and  _542
REMARK  228  A    between atoms: _542  and  _543
REMARK                            x       y       z     vdW  Elec       q    Type
REMARK                         _______ _______ _______ _____ _____    ______ ____
ROOT
ATOM      1  CB  HIS A   1       2.099   8.499  16.585  0.00  0.00    +0.072 C 
ENDROOT
BRANCH   1   2
ATOM      2  CG  HIS A   1       2.245   8.767  18.044  0.00  0.00    +0.082 A 
ATOM      3  ND1 HIS A   1       2.313   7.753  18.977  0.00  0.00    -0.227 NA
ATOM      4  CE1 HIS A   1       2.431   8.286  20.180  0.00  0.00    +0.199 A 
ATOM      5  NE2 HIS A   1       2.414   9.603  20.063  0.00  0.00    -0.221 NA
ATOM      6  CD2 HIS A   1       2.299   9.928  18.735  0.00  0.00    +0.115 A 
ENDBRANCH   1   2
BRANCH   1   7
ATOM      7  CA  HIS A   1       3.406   8.652  15.786  0.00  0.00    +0.139 C 
BRANCH   7   8
ATOM      8  N   HIS A   1       4.286   7.494  15.931  0.00  0.00    -0.239 NA
ATOM      9  H   HIS A   1       4.089   6.770  16.651  0.00  0.00    +0.142 HD
ENDBRANCH   7   8
BRANCH   7  10
ATOM     10  C   HIS A   1       4.141   9.931  16.176  0.00  0.00    +0.224 C 
ATOM     11  O   HIS A   1       3.751  11.012  15.772  0.00  0.00    -0.287 OA
ENDBRANCH   7  10
ENDBRANCH   1   7
TORSDOF 4
REMARK  Name = ../refined-set-2016/2y5f/2y5f_pocket.pdb
REMARK  228 active torsions:
REMARK  status: ('A' for Active; 'I' for Inactive)
REMARK    1  A    between atoms: _1  and  _5
REMARK    2  A    between atoms: _5  and  _6
REMARK    3  A    between atoms: _5  and  _8
REMARK    4  A    between atoms: _8  and  _9
REMARK    5  A    between atoms: _12  and  _14
REMARK    6  A    between atoms: _14  and  _15
REMARK    7  A    between atoms: _14  and  _17
REMARK    8  A    between atoms: _20  and  _22
REMARK    9  A    between atoms: _22  and  _23
REMARK   10  A    between atoms: _22  and  _25
REMARK   11  A    between atoms: _25  and  _26
REMARK   12  A    between atoms: _32  and  _34
REMARK   13  A    between atoms: _34  and  _35
REMARK   14  A    between atoms: _34  and  _37
REMARK   15  A    between atoms: _39  and  _41
REMARK   16  A    between atoms: _41  and  _42
REMARK   17  A    between atoms: _41  and  _44
REMARK   18  A    between atoms: _44  and  _45
REMARK   19  A    between atoms: _50  and  _52
REMARK   20  A    between atoms: _52  and  _53
REMARK   21  A    between atoms: _52  and  _55
REMARK   22  A    between atoms: _55  and  _56
REMARK   23  A    between atoms: _56  and  _57
REMARK   24  A    between atoms: _62  and  _64
REMARK   25  A    between atoms: _64  and  _65
REMARK   26  A    between atoms: _64  and  _67
REMARK   27  A    between atoms: _67  and  _68
REMARK   28  A    between atoms: _74  and  _76
REMARK   29  A    between atoms: _76  and  _77
REMARK   30  A    between atoms: _76  and  _79
REMARK   31  A    between atoms: _79  and  _80
REMARK   32  A    between atoms: _83  and  _85
REMARK   33  A    between atoms: _85  and  _86
REMARK   34  A    between atoms: _85  and  _88
REMARK   35  A    between atoms: _88  and  _89
REMARK   36  A    between atoms: _89  and  _90
REMARK   37  A    between atoms: _90  and  _91
REMARK   38  A    between atoms: _91  and  _92
REMARK   39  A    between atoms: _96  and  _98
REMARK   40  A    between atoms: _98  and  _99
REMARK   41  A    between atoms: _98  and  _101
REMARK   42  A    between atoms: _101  and  _102
REMARK   43  A    between atoms: _102  and  _103
REMARK   44  A    between atoms: _106  and  _108
REMARK   45  A    between atoms: _108  and  _109
REMARK   46  A    between atoms: _108  and  _111
REMARK   47  A    between atoms: _111  and  _112
REMARK   48  A    between atoms: _115  and  _117
REMARK   49  A    between atoms: _117  and  _118
REMARK   50  A    between atoms: _117  and  _120
REMARK   51  A    between atoms: _120  and  _121
REMARK   52  A    between atoms: _126  and  _127
REMARK   53  A    between atoms: _129  and  _131
REMARK   54  A    between atoms: _131  and  _132
REMARK   55  A    between atoms: _131  and  _134
REMARK   56  A    between atoms: _134  and  _135
REMARK   57  A    between atoms: _138  and  _140
REMARK   58  A    between atoms: _140  and  _141
REMARK   59  A    between atoms: _140  and  _143
REMARK   60  A    between atoms: _143  and  _144
REMARK   61  A    between atoms: _147  and  _149
REMARK   62  A    between atoms: _149  and  _150
REMARK   63  A    between atoms: _149  and  _152
REMARK   64  A    between atoms: _155  and  _157
REMARK   65  A    between atoms: _157  and  _158
REMARK   66  A    between atoms: _157  and  _160
REMARK   67  A    between atoms: _160  and  _161
REMARK   68  A    between atoms: _161  and  _162
REMARK   69  A    between atoms: _162  and  _163
REMARK   70  A    between atoms: _172  and  _174
REMARK   71  A    between atoms: _174  and  _175
REMARK   72  A    between atoms: _174  and  _177
REMARK   73  A    between atoms: _177  and  _178
REMARK   74  A    between atoms: _183  and  _185
REMARK   75  A    between atoms: _185  and  _186
REMARK   76  A    between atoms: _185  and  _188
REMARK   77  A    between atoms: _188  and  _189
REMARK   78  A    between atoms: _189  and  _190
REMARK   79  A    between atoms: _193  and  _195
REMARK   80  A    between atoms: _195  and  _196
REMARK   81  A    between atoms: _195  and  _198
REMARK   82  A    between atoms: _198  and  _199
REMARK   83  A    between atoms: _199  and  _200
REMARK   84  A    between atoms: _200  and  _201
REMARK   85  A    between atoms: _201  and  _202
REMARK   86  A    between atoms: _206  and  _208
REMARK   87  A    between atoms: _208  and  _209
REMARK   88  A    between atoms: _211  and  _213
REMARK   89  A    between atoms: _213  and  _214
REMARK   90  A    between atoms: _213  and  _216
REMARK   91  A    between atoms: _219  and  _221
REMARK   92  A    between atoms: _221  and  _222
REMARK   93  A    between atoms: _221  and  _224
REMARK   94  A    between atoms: _224  and  _225
REMARK   95  A    between atoms: _227  and  _229
REMARK   96  A    between atoms: _229  and  _230
REMARK   97  A    between atoms: _229  and  _232
REMARK   98  A    between atoms: _232  and  _233
REMARK   99  A    between atoms: _235  and  _237
REMARK  100  A    between atoms: _237  and  _238
REMARK  101  A    between atoms: _237  and  _240
REMARK  102  A    between atoms: _240  and  _241
REMARK  103  A    between atoms: _247  and  _249
REMARK  104  A    between atoms: _249  and  _250
REMARK  105  A    between atoms: _249  and  _252
REMARK  106  A    between atoms: _252  and  _253
REMARK  107  A    between atoms: _256  and  _258
REMARK  108  A    between atoms: _258  and  _259
REMARK  109  A    between atoms: _258  and  _261
REMARK  110  A    between atoms: _261  and  _262
REMARK  111  A    between atoms: _265  and  _267
REMARK  112  A    between atoms: _267  and  _268
REMARK  113  A    between atoms: _267  and  _270
REMARK  114  A    between atoms: _270  and  _271
REMARK  115  A    between atoms: _271  and  _272
REMARK  116  A    between atoms: _274  and  _276
REMARK  117  A    between atoms: _276  and  _277
REMARK  118  A    between atoms: _276  and  _279
REMARK  119  A    between atoms: _279  and  _280
REMARK  120  A    between atoms: _286  and  _288
REMARK  121  A    between atoms: _288  and  _289
REMARK  122  A    between atoms: _288  and  _291
REMARK  123  A    between atoms: _293  and  _295
REMARK  124  A    between atoms: _295  and  _296
REMARK  125  A    between atoms: _299  and  _301
REMARK  126  A    between atoms: _301  and  _302
REMARK  127  A    between atoms: _304  and  _306
REMARK  128  A    between atoms: _306  and  _307
REMARK  129  A    between atoms: _306  and  _309
REMARK  130  A    between atoms: _309  and  _310
REMARK  131  A    between atoms: _310  and  _311
REMARK  132  A    between atoms: _314  and  _316
REMARK  133  A    between atoms: _316  and  _317
REMARK  134  A    between atoms: _316  and  _319
REMARK  135  A    between atoms: _319  and  _320
REMARK  136  A    between atoms: _323  and  _325
REMARK  137  A    between atoms: _325  and  _326
REMARK  138  A    between atoms: _329  and  _331
REMARK  139  A    between atoms: _331  and  _332
REMARK  140  A    between atoms: _331  and  _334
REMARK  141  A    between atoms: _334  and  _335
REMARK  142  A    between atoms: _335  and  _458
REMARK  143  A    between atoms: _336  and  _338
REMARK  144  A    between atoms: _338  and  _339
REMARK  145  A    between atoms: _338  and  _341
REMARK  146  A    between atoms: _341  and  _342
REMARK  147  A    between atoms: _342  and  _343
REMARK  148  A    between atoms: _348  and  _350
REMARK  149  A    between atoms: _350  and  _351
REMARK  150  A    between atoms: _353  and  _355
REMARK  151  A    between atoms: _355  and  _356
REMARK  152  A    between atoms: _355  and  _358
REMARK  153  A    between atoms: _358  and  _359
REMARK  154  A    between atoms: _362  and  _364
REMARK  155  A    between atoms: _364  and  _365
REMARK  156  A    between atoms: _364  and  _367
REMARK  157  A    between atoms: _367  and  _368
REMARK  158  A    between atoms: _370  and  _372
REMARK  159  A    between atoms: _372  and  _373
REMARK  160  A    between atoms: _375  and  _377
REMARK  161  A    between atoms: _377  and  _378
REMARK  162  A    between atoms: _380  and  _382
REMARK  163  A    between atoms: _382  and  _383
REMARK  164  A    between atoms: _382  and  _385
REMARK  165  A    between atoms: _385  and  _386
REMARK  166  A    between atoms: _391  and  _393
REMARK  167  A    between atoms: _393  and  _394
REMARK  168  A    between atoms: _393  and  _396
REMARK  169  A    between atoms: _396  and  _397
REMARK  170  A    between atoms: _400  and  _402
REMARK  171  A    between atoms: _402  and  _403
REMARK  172  A    between atoms: _402  and  _405
REMARK  173  A    between atoms: _408  and  _410
REMARK  174  A    between atoms: _410  and  _411
REMARK  175  A    between atoms: _410  and  _413
REMARK  176  A    between atoms: _413  and  _414
REMARK  177  A    between atoms: _416  and  _418
REMARK  178  A    between atoms: _418  and  _419
REMARK  179  A    between atoms: _418  and  _421
REMARK  180  A    between atoms: _421  and  _422
REMARK  181  A    between atoms: _432  and  _434
REMARK  182  A    between atoms: _434  and  _435
REMARK  183  A    between atoms: _437  and  _439
REMARK  184  A    between atoms: _439  and  _440
REMARK  185  A    between atoms: _439  and  _442
REMARK  186  A    between atoms: _442  and  _443
REMARK  187  A    between atoms: _443  and  _444
REMARK  188  A    between atoms: _447  and  _449
REMARK  189  A    between atoms: _449  and  _450
REMARK  190  A    between atoms: _452  and  _454
REMARK  191  A    between atoms: _454  and  _455
REMARK  192  A    between atoms: _454  and  _457
REMARK  193  A    between atoms: _457  and  _458
REMARK  194  A    between atoms: _459  and  _461
REMARK  195  A    between atoms: _461  and  _462
REMARK  196  A    between atoms: _465  and  _467
REMARK  197  A    between atoms: _467  and  _468
REMARK  198  A    between atoms: _467  and  _470
REMARK  199  A    between atoms: _470  and  _471
REMARK  200  A    between atoms: _471  and  _472
REMARK  201  A    between atoms: _472  and  _473
REMARK  202  A    between atoms: _482  and  _484
REMARK  203  A    between atoms: _484  and  _485
REMARK  204  A    between atoms: _484  and  _487
REMARK  205  A    between atoms: _487  and  _488
REMARK  206  A    between atoms: _488  and  _489
REMARK  207  A    between atoms: _489  and  _490
REMARK  208  A    between atoms: _490  and  _491
REMARK  209  A    between atoms: _495  and  _497
REMARK  210  A    between atoms: _497  and  _498
REMARK  211  A    between atoms: _497  and  _500
REMARK  212  A    between atoms: _500  and  _501
REMARK  213  A    between atoms: _506  and  _507
REMARK  214  A    between atoms: _509  and  _511
REMARK  215  A    between atoms: _511  and  _512
REMARK  216  A    between atoms: _514  and  _516
REMARK  217  A    between atoms: _516  and  _517
REMARK  218  A    between atoms: _516  and  _519
REMARK  219  A    between atoms: _519  and  _520
REMARK  220  A    between atoms: _523  and  _525
REMARK  221  A    between atoms: _525  and  _526
REMARK  222  A    between atoms: _525  and  _528
REMARK  223  A    between atoms: _528  and  _529
REMARK  224  A    between atoms: _534  and  _535
REMARK  225  A    between atoms: _537  and  _539
REMARK  226  A    between atoms: _539  and  _540
REMARK  227  A    between atoms: _539  and  _542
REMARK  228  A    between atoms: _542  and  _543
REMARK                            x       y       z     vdW  Elec       q    Type
REMARK                         _______ _______ _______ _____ _____    ______ ____
ROOT
ATOM      1  CB  GLN A   1       4.116  15.056  16.929  0.00  0.00    +0.035 C 
ENDROOT
BRANCH   1   2
ATOM      2  CA  GLN A   1       4.510  15.702  15.585  0.00  0.00    +0.134 C 
BRANCH   2   3
ATOM      3  N   GLN A   1       4.954  14.673  14.644  0.00  0.00    -0.239 NA
ATOM      4  H   GLN A   1       5.679  13.990  14.942  0.00  0.00    +0.142 HD
ENDBRANCH   2   3
BRANCH   2   5
ATOM      5  C   GLN A   1       5.516  16.844  15.736  0.00  0.00    +0.224 C 
ATOM      6  O   GLN A   1       5.281  17.786  16.498  0.00  0.00    -0.287 OA
ENDBRANCH   2   5
ENDBRANCH   1   2
BRANCH   1   7
ATOM      7  CG  GLN A   1       2.857  14.155  16.781  0.00  0.00    +0.087 C 
BRANCH   7   8
ATOM      8  CD  GLN A   1       2.317  13.621  18.089  0.00  0.00    +0.219 C 
ATOM      9  OE1 GLN A   1       3.017  13.578  19.092  0.00  0.00    -0.275 OA
ATOM     10  NE2 GLN A   1       1.057  13.189  18.073  0.00  0.00    -0.329 N 
ATOM     11 HE21 GLN A   1       0.631  12.796  18.936  0.00  0.00    +0.145 HD
ATOM     12 HE22 GLN A   1       0.499  13.245  17.197  0.00  0.00    +0.145 HD
ENDBRANCH   7   8
ENDBRANCH   1   7
TORSDOF 5
REMARK  Name = ../refined-set-2016/2y5f/2y5f_pocket.pdb
REMARK  228 active torsions:
REMARK  status: ('A' for Active; 'I' for Inactive)
REMARK    1  A    between atoms: _1  and  _5
REMARK    2  A    between atoms: _5  and  _6
REMARK    3  A    between atoms: _5  and  _8
REMARK    4  A    between atoms: _8  and  _9
REMARK    5  A    between atoms: _12  and  _14
REMARK    6  A    between atoms: _14  and  _15
REMARK    7  A    between atoms: _14  and  _17
REMARK    8  A    between atoms: _20  and  _22
REMARK    9  A    between atoms: _22  and  _23
REMARK   10  A    between atoms: _22  and  _25
REMARK   11  A    between atoms: _25  and  _26
REMARK   12  A    between atoms: _32  and  _34
REMARK   13  A    between atoms: _34  and  _35
REMARK   14  A    between atoms: _34  and  _37
REMARK   15  A    between atoms: _39  and  _41
REMARK   16  A    between atoms: _41  and  _42
REMARK   17  A    between atoms: _41  and  _44
REMARK   18  A    between atoms: _44  and  _45
REMARK   19  A    between atoms: _50  and  _52
REMARK   20  A    between atoms: _52  and  _53
REMARK   21  A    between atoms: _52  and  _55
REMARK   22  A    between atoms: _55  and  _56
REMARK   23  A    between atoms: _56  and  _57
REMARK   24  A    between atoms: _62  and  _64
REMARK   25  A    between atoms: _64  and  _65
REMARK   26  A    between atoms: _64  and  _67
REMARK   27  A    between atoms: _67  and  _68
REMARK   28  A    between atoms: _74  and  _76
REMARK   29  A    between atoms: _76  and  _77
REMARK   30  A    between atoms: _76  and  _79
REMARK   31  A    between atoms: _79  and  _80
REMARK   32  A    between atoms: _83  and  _85
REMARK   33  A    between atoms: _85  and  _86
REMARK   34  A    between atoms: _85  and  _88
REMARK   35  A    between atoms: _88  and  _89
REMARK   36  A    between atoms: _89  and  _90
REMARK   37  A    between atoms: _90  and  _91
REMARK   38  A    between atoms: _91  and  _92
REMARK   39  A    between atoms: _96  and  _98
REMARK   40  A    between atoms: _98  and  _99
REMARK   41  A    between atoms: _98  and  _101
REMARK   42  A    between atoms: _101  and  _102
REMARK   43  A    between atoms: _102  and  _103
REMARK   44  A    between atoms: _106  and  _108
REMARK   45  A    between atoms: _108  and  _109
REMARK   46  A    between atoms: _108  and  _111
REMARK   47  A    between atoms: _111  and  _112
REMARK   48  A    between atoms: _115  and  _117
REMARK   49  A    between atoms: _117  and  _118
REMARK   50  A    between atoms: _117  and  _120
REMARK   51  A    between atoms: _120  and  _121
REMARK   52  A    between atoms: _126  and  _127
REMARK   53  A    between atoms: _129  and  _131
REMARK   54  A    between atoms: _131  and  _132
REMARK   55  A    between atoms: _131  and  _134
REMARK   56  A    between atoms: _134  and  _135
REMARK   57  A    between atoms: _138  and  _140
REMARK   58  A    between atoms: _140  and  _141
REMARK   59  A    between atoms: _140  and  _143
REMARK   60  A    between atoms: _143  and  _144
REMARK   61  A    between atoms: _147  and  _149
REMARK   62  A    between atoms: _149  and  _150
REMARK   63  A    between atoms: _149  and  _152
REMARK   64  A    between atoms: _155  and  _157
REMARK   65  A    between atoms: _157  and  _158
REMARK   66  A    between atoms: _157  and  _160
REMARK   67  A    between atoms: _160  and  _161
REMARK   68  A    between atoms: _161  and  _162
REMARK   69  A    between atoms: _162  and  _163
REMARK   70  A    between atoms: _172  and  _174
REMARK   71  A    between atoms: _174  and  _175
REMARK   72  A    between atoms: _174  and  _177
REMARK   73  A    between atoms: _177  and  _178
REMARK   74  A    between atoms: _183  and  _185
REMARK   75  A    between atoms: _185  and  _186
REMARK   76  A    between atoms: _185  and  _188
REMARK   77  A    between atoms: _188  and  _189
REMARK   78  A    between atoms: _189  and  _190
REMARK   79  A    between atoms: _193  and  _195
REMARK   80  A    between atoms: _195  and  _196
REMARK   81  A    between atoms: _195  and  _198
REMARK   82  A    between atoms: _198  and  _199
REMARK   83  A    between atoms: _199  and  _200
REMARK   84  A    between atoms: _200  and  _201
REMARK   85  A    between atoms: _201  and  _202
REMARK   86  A    between atoms: _206  and  _208
REMARK   87  A    between atoms: _208  and  _209
REMARK   88  A    between atoms: _211  and  _213
REMARK   89  A    between atoms: _213  and  _214
REMARK   90  A    between atoms: _213  and  _216
REMARK   91  A    between atoms: _219  and  _221
REMARK   92  A    between atoms: _221  and  _222
REMARK   93  A    between atoms: _221  and  _224
REMARK   94  A    between atoms: _224  and  _225
REMARK   95  A    between atoms: _227  and  _229
REMARK   96  A    between atoms: _229  and  _230
REMARK   97  A    between atoms: _229  and  _232
REMARK   98  A    between atoms: _232  and  _233
REMARK   99  A    between atoms: _235  and  _237
REMARK  100  A    between atoms: _237  and  _238
REMARK  101  A    between atoms: _237  and  _240
REMARK  102  A    between atoms: _240  and  _241
REMARK  103  A    between atoms: _247  and  _249
REMARK  104  A    between atoms: _249  and  _250
REMARK  105  A    between atoms: _249  and  _252
REMARK  106  A    between atoms: _252  and  _253
REMARK  107  A    between atoms: _256  and  _258
REMARK  108  A    between atoms: _258  and  _259
REMARK  109  A    between atoms: _258  and  _261
REMARK  110  A    between atoms: _261  and  _262
REMARK  111  A    between atoms: _265  and  _267
REMARK  112  A    between atoms: _267  and  _268
REMARK  113  A    between atoms: _267  and  _270
REMARK  114  A    between atoms: _270  and  _271
REMARK  115  A    between atoms: _271  and  _272
REMARK  116  A    between atoms: _274  and  _276
REMARK  117  A    between atoms: _276  and  _277
REMARK  118  A    between atoms: _276  and  _279
REMARK  119  A    between atoms: _279  and  _280
REMARK  120  A    between atoms: _286  and  _288
REMARK  121  A    between atoms: _288  and  _289
REMARK  122  A    between atoms: _288  and  _291
REMARK  123  A    between atoms: _293  and  _295
REMARK  124  A    between atoms: _295  and  _296
REMARK  125  A    between atoms: _299  and  _301
REMARK  126  A    between atoms: _301  and  _302
REMARK  127  A    between atoms: _304  and  _306
REMARK  128  A    between atoms: _306  and  _307
REMARK  129  A    between atoms: _306  and  _309
REMARK  130  A    between atoms: _309  and  _310
REMARK  131  A    between atoms: _310  and  _311
REMARK  132  A    between atoms: _314  and  _316
REMARK  133  A    between atoms: _316  and  _317
REMARK  134  A    between atoms: _316  and  _319
REMARK  135  A    between atoms: _319  and  _320
REMARK  136  A    between atoms: _323  and  _325
REMARK  137  A    between atoms: _325  and  _326
REMARK  138  A    between atoms: _329  and  _331
REMARK  139  A    between atoms: _331  and  _332
REMARK  140  A    between atoms: _331  and  _334
REMARK  141  A    between atoms: _334  and  _335
REMARK  142  A    between atoms: _335  and  _458
REMARK  143  A    between atoms: _336  and  _338
REMARK  144  A    between atoms: _338  and  _339
REMARK  145  A    between atoms: _338  and  _341
REMARK  146  A    between atoms: _341  and  _342
REMARK  147  A    between atoms: _342  and  _343
REMARK  148  A    between atoms: _348  and  _350
REMARK  149  A    between atoms: _350  and  _351
REMARK  150  A    between atoms: _353  and  _355
REMARK  151  A    between atoms: _355  and  _356
REMARK  152  A    between atoms: _355  and  _358
REMARK  153  A    between atoms: _358  and  _359
REMARK  154  A    between atoms: _362  and  _364
REMARK  155  A    between atoms: _364  and  _365
REMARK  156  A    between atoms: _364  and  _367
REMARK  157  A    between atoms: _367  and  _368
REMARK  158  A    between atoms: _370  and  _372
REMARK  159  A    between atoms: _372  and  _373
REMARK  160  A    between atoms: _375  and  _377
REMARK  161  A    between atoms: _377  and  _378
REMARK  162  A    between atoms: _380  and  _382
REMARK  163  A    between atoms: _382  and  _383
REMARK  164  A    between atoms: _382  and  _385
REMARK  165  A    between atoms: _385  and  _386
REMARK  166  A    between atoms: _391  and  _393
REMARK  167  A    between atoms: _393  and  _394
REMARK  168  A    between atoms: _393  and  _396
REMARK  169  A    between atoms: _396  and  _397
REMARK  170  A    between atoms: _400  and  _402
REMARK  171  A    between atoms: _402  and  _403
REMARK  172  A    between atoms: _402  and  _405
REMARK  173  A    between atoms: _408  and  _410
REMARK  174  A    between atoms: _410  and  _411
REMARK  175  A    between atoms: _410  and  _413
REMARK  176  A    between atoms: _413  and  _414
REMARK  177  A    between atoms: _416  and  _418
REMARK  178  A    between atoms: _418  and  _419
REMARK  179  A    between atoms: _418  and  _421
REMARK  180  A    between atoms: _421  and  _422
REMARK  181  A    between atoms: _432  and  _434
REMARK  182  A    between atoms: _434  and  _435
REMARK  183  A    between atoms: _437  and  _439
REMARK  184  A    between atoms: _439  and  _440
REMARK  185  A    between atoms: _439  and  _442
REMARK  186  A    between atoms: _442  and  _443
REMARK  187  A    between atoms: _443  and  _444
REMARK  188  A    between atoms: _447  and  _449
REMARK  189  A    between atoms: _449  and  _450
REMARK  190  A    between atoms: _452  and  _454
REMARK  191  A    between atoms: _454  and  _455
REMARK  192  A    between atoms: _454  and  _457
REMARK  193  A    between atoms: _457  and  _458
REMARK  194  A    between atoms: _459  and  _461
REMARK  195  A    between atoms: _461  and  _462
REMARK  196  A    between atoms: _465  and  _467
REMARK  197  A    between atoms: _467  and  _468
REMARK  198  A    between atoms: _467  and  _470
REMARK  199  A    between atoms: _470  and  _471
REMARK  200  A    between atoms: _471  and  _472
REMARK  201  A    between atoms: _472  and  _473
REMARK  202  A    between atoms: _482  and  _484
REMARK  203  A    between atoms: _484  and  _485
REMARK  204  A    between atoms: _484  and  _487
REMARK  205  A    between atoms: _487  and  _488
REMARK  206  A    between atoms: _488  and  _489
REMARK  207  A    between atoms: _489  and  _490
REMARK  208  A    between atoms: _490  and  _491
REMARK  209  A    between atoms: _495  and  _497
REMARK  210  A    between atoms: _497  and  _498
REMARK  211  A    between atoms: _497  and  _500
REMARK  212  A    between atoms: _500  and  _501
REMARK  213  A    between atoms: _506  and  _507
REMARK  214  A    between atoms: _509  and  _511
REMARK  215  A    between atoms: _511  and  _512
REMARK  216  A    between atoms: _514  and  _516
REMARK  217  A    between atoms: _516  and  _517
REMARK  218  A    between atoms: _516  and  _519
REMARK  219  A    between atoms: _519  and  _520
REMARK  220  A    between atoms: _523  and  _525
REMARK  221  A    between atoms: _525  and  _526
REMARK  222  A    between atoms: _525  and  _528
REMARK  223  A    between atoms: _528  and  _529
REMARK  224  A    between atoms: _534  and  _535
REMARK  225  A    between atoms: _537  and  _539
REMARK  226  A    between atoms: _539  and  _540
REMARK  227  A    between atoms: _539  and  _542
REMARK  228  A    between atoms: _542  and  _543
REMARK                            x       y       z     vdW  Elec       q    Type
REMARK                         _______ _______ _______ _____ _____    ______ ____
ROOT
ATOM      1  CA  GLU A   4      -5.599   6.230  12.045  0.00  0.00    +0.149 C 
ENDROOT
BRANCH   1   4
ATOM      2  C   LYS A   3      -3.279   6.892  12.332  0.00  0.00    +0.241 C 
ATOM      3  O   LYS A   3      -3.529   7.455  13.405  0.00  0.00    -0.273 OA
ATOM      4  N   GLU A   4      -4.202   6.240  11.634  0.00  0.00    -0.297 N 
ATOM      5  H   GLU A   4      -3.921   5.725  10.775  0.00  0.00    +0.150 HD
BRANCH   2   6
ATOM      6  CA  LYS A   3      -1.871   6.927  11.724  0.00  0.00    +0.149 C 
BRANCH   6   9
ATOM      7  C   THR A   2      -1.464   4.527  11.519  0.00  0.00    +0.243 C 
ATOM      8  O   THR A   2      -1.741   4.359  12.699  0.00  0.00    -0.273 OA
ATOM      9  N   LYS A   3      -1.535   5.722  10.950  0.00  0.00    -0.297 N 
ATOM     10  H   LYS A   3      -1.348   5.810   9.931  0.00  0.00    +0.150 HD
BRANCH   7  11
ATOM     11  CA  THR A   2      -1.010   3.349  10.665  0.00  0.00    +0.176 C 
BRANCH  11  13
ATOM     12  C   PHE A   1       1.326   2.654  10.506  0.00  0.00    +0.239 C 
ATOM     13  N   THR A   2       0.227   2.824  11.229  0.00  0.00    -0.295 N 
ATOM     14  H   THR A   2       0.249   2.573  12.238  0.00  0.00    +0.150 HD
ATOM     15  O   PHE A   1       1.424   3.001   9.316  0.00  0.00    -0.274 OA
BRANCH  12  16
ATOM     16  CA  PHE A   1       2.503   2.031  11.236  0.00  0.00    +0.149 C 
BRANCH  16  17
ATOM     17  N   PHE A   1       3.114   1.013  10.395  0.00  0.00    -0.238 NA
ATOM     18  H   PHE A   1       4.126   1.061  10.161  0.00  0.00    +0.142 HD
ENDBRANCH  16  17
BRANCH  16  19
ATOM     19  CB  PHE A   1       3.482   3.130  11.645  0.00  0.00    +0.053 C 
BRANCH  19  20
ATOM     20  CG  PHE A   1       2.805   4.301  12.325  0.00  0.00    -0.020 A 
ATOM     21  CD2 PHE A   1       2.218   4.147  13.577  0.00  0.00    -0.004 A 
ATOM     22  CE2 PHE A   1       1.570   5.201  14.193  0.00  0.00    -0.000 A 
ATOM     23  CZ  PHE A   1       1.500   6.424  13.576  0.00  0.00    -0.000 A 
ATOM     24  CE1 PHE A   1       2.054   6.599  12.317  0.00  0.00    -0.000 A 
ATOM     25  CD1 PHE A   1       2.724   5.539  11.697  0.00  0.00    -0.004 A 
ENDBRANCH  19  20
ENDBRANCH  16  19
ENDBRANCH  12  16
ENDBRANCH  11  13
BRANCH  11  26
ATOM     26  CB  THR A   2      -2.130   2.260  10.640  0.00  0.00    +0.137 C 
ATOM     27  CG2 THR A   2      -3.386   2.774   9.945  0.00  0.00    +0.034 C 
BRANCH  26  28
ATOM     28  OG1 THR A   2      -1.635   1.076   9.996  0.00  0.00    -0.382 OA
ATOM     29  HG1 THR A   2      -0.852   0.733  10.496  0.00  0.00    +0.210 HD
ENDBRANCH  26  28
ENDBRANCH  11  26
ENDBRANCH   7  11
ENDBRANCH   6   9
BRANCH   6  30
ATOM     30  CB  LYS A   3      -1.737   8.166  10.833  0.00  0.00    +0.029 C 
BRANCH  30  31
ATOM     31  CG  LYS A   3      -1.794   9.491  11.563  0.00  0.00    +0.000 C 
BRANCH  31  32
ATOM     32  CD  LYS A   3      -1.505  10.646  10.614  0.00  0.00    -0.024 C 
BRANCH  32  33
ATOM     33  CE  LYS A   3      -1.621  11.986  11.314  0.00  0.00    -0.086 C 
BRANCH  33  34
ATOM     34  NZ  LYS A   3      -1.334  13.122  10.396  0.00  0.00    +0.380 N 
ATOM     35  HZ1 LYS A   3      -1.425  14.018  10.916  0.00  0.00    -0.089 HD
ATOM     36  HZ2 LYS A   3      -0.366  13.031  10.026  0.00  0.00    -0.089 HD
ATOM     37  HZ3 LYS A   3      -2.011  13.108   9.607  0.00  0.00    -0.089 HD
ENDBRANCH  33  34
ENDBRANCH  32  33
ENDBRANCH  31  32
ENDBRANCH  30  31
ENDBRANCH   6  30
ENDBRANCH   2   6
ENDBRANCH   1   4
BRANCH   1  38
ATOM     38  C   GLU A   4      -5.774   5.502  13.356  0.00  0.00    +0.241 C 
ATOM     39  O   GLU A   4      -6.474   5.967  14.248  0.00  0.00    -0.273 OA
ATOM     40  N   THR A   5      -5.119   4.359  13.475  0.00  0.00    -0.295 N 
ATOM     41  H   THR A   5      -4.419   4.095  12.753  0.00  0.00    +0.150 HD
BRANCH  40  42
ATOM     42  CA  THR A   5      -5.360   3.464  14.598  0.00  0.00    +0.176 C 
BRANCH  42  43
ATOM     43  C   THR A   5      -4.177   3.412  15.584  0.00  0.00    +0.243 C 
ATOM     44  O   THR A   5      -4.281   2.829  16.669  0.00  0.00    -0.273 OA
ATOM     45  N   TYR A   6      -3.060   4.030  15.199  0.00  0.00    -0.297 N 
ATOM     46  H   TYR A   6      -3.123   4.680  14.390  0.00  0.00    +0.150 HD
BRANCH  45  47
ATOM     47  CA  TYR A   6      -1.742   3.859  15.836  0.00  0.00    +0.153 C 
BRANCH  47  48
ATOM     48  C   TYR A   6      -1.318   2.384  15.971  0.00  0.00    +0.241 C 
ATOM     49  O   TYR A   6      -0.500   2.032  16.832  0.00  0.00    -0.273 OA
ATOM     50  N   ASP A   7      -1.800   1.510  15.094  0.00  0.00    -0.298 N 
ATOM     51  H   ASP A   7      -2.556   1.787  14.436  0.00  0.00    +0.150 HD
BRANCH  50  52
ATOM     52  CA  ASP A   7      -1.254   0.153  15.065  0.00  0.00    +0.148 C 
BRANCH  52  53
ATOM     53  C   ASP A   7       0.214   0.222  14.602  0.00  0.00    +0.227 C 
ATOM     54  O   ASP A   7       0.591   1.113  13.834  0.00  0.00    -0.286 OA
ENDBRANCH  52  53
BRANCH  52  55
ATOM     55  CB  ASP A   7      -2.101  -0.746  14.171  0.00  0.00    +0.142 C 
BRANCH  55  56
ATOM     56  CG  ASP A   7      -1.877  -2.226  14.425  0.00  0.00    +0.367 C 
ATOM     57  OD2 ASP A   7      -1.308  -2.590  15.477  0.00  0.00    -0.246 OA
ATOM     58  OD1 ASP A   7      -2.317  -3.017  13.564  0.00  0.00    -0.246 OA
ENDBRANCH  55  56
ENDBRANCH  52  55
ENDBRANCH  50  52
ENDBRANCH  47  48
BRANCH  47  59
ATOM     59  CB  TYR A   6      -1.671   4.554  17.207  0.00  0.00    +0.055 C 
BRANCH  59  60
ATOM     60  CG  TYR A   6      -1.554   6.073  17.199  0.00  0.00    -0.020 A 
ATOM     61  CD2 TYR A   6      -1.160   6.756  18.328  0.00  0.00    -0.001 A 
ATOM     62  CE2 TYR A   6      -1.064   8.126  18.360  0.00  0.00    +0.036 A 
ATOM     63  CZ  TYR A   6      -1.357   8.866  17.229  0.00  0.00    +0.134 A 
ATOM     64  CE1 TYR A   6      -1.755   8.211  16.092  0.00  0.00    +0.036 A 
ATOM     65  CD1 TYR A   6      -1.852   6.831  16.074  0.00  0.00    -0.001 A 
BRANCH  63  66
ATOM     66  OH  TYR A   6      -1.239  10.234  17.278  0.00  0.00    -0.506 OA
ATOM     67  HH  TYR A   6      -1.482  10.617  16.398  0.00  0.00    +0.292 HD
ENDBRANCH  63  66
ENDBRANCH  59  60
ENDBRANCH  47  59
ENDBRANCH  45  47
ENDBRANCH  42  43
BRANCH  42  68
ATOM     68  CB  THR A   5      -5.582   2.040  14.067  0.00  0.00    +0.137 C 
ATOM     69  CG2 THR A   5      -6.830   1.967  13.147  0.00  0.00    +0.034 C 
BRANCH  68  70
ATOM     70  OG1 THR A   5      -4.421   1.652  13.327  0.00  0.00    -0.382 OA
ATOM     71  HG1 THR A   5      -4.546   0.735  12.976  0.00  0.00    +0.210 HD
ENDBRANCH  68  70
ENDBRANCH  42  68
ENDBRANCH  40  42
ENDBRANCH   1  38
BRANCH   1  72
ATOM     72  CB  GLU A   4      -6.493   5.583  10.971  0.00  0.00    +0.041 C 
BRANCH  72  73
ATOM     73  CG  GLU A   4      -6.685   6.421   9.701  0.00  0.00    +0.116 C 
BRANCH  73  74
ATOM     74  CD  GLU A   4      -5.397   6.647   8.931  0.00  0.00    +0.365 C 
ATOM     75  OE2 GLU A   4      -4.605   5.687   8.790  0.00  0.00    -0.246 OA
ATOM     76  OE1 GLU A   4      -5.175   7.789   8.473  0.00  0.00    -0.246 OA
ENDBRANCH  73  74
ENDBRANCH  72  73
ENDBRANCH   1  72
TORSDOF 33
REMARK  Name = ../refined-set-2016/2y5f/2y5f_pocket.pdb
REMARK  228 active torsions:
REMARK  status: ('A' for Active; 'I' for Inactive)
REMARK    1  A    between atoms: _1  and  _5
REMARK    2  A    between atoms: _5  and  _6
REMARK    3  A    between atoms: _5  and  _8
REMARK    4  A    between atoms: _8  and  _9
REMARK    5  A    between atoms: _12  and  _14
REMARK    6  A    between atoms: _14  and  _15
REMARK    7  A    between atoms: _14  and  _17
REMARK    8  A    between atoms: _20  and  _22
REMARK    9  A    between atoms: _22  and  _23
REMARK   10  A    between atoms: _22  and  _25
REMARK   11  A    between atoms: _25  and  _26
REMARK   12  A    between atoms: _32  and  _34
REMARK   13  A    between atoms: _34  and  _35
REMARK   14  A    between atoms: _34  and  _37
REMARK   15  A    between atoms: _39  and  _41
REMARK   16  A    between atoms: _41  and  _42
REMARK   17  A    between atoms: _41  and  _44
REMARK   18  A    between atoms: _44  and  _45
REMARK   19  A    between atoms: _50  and  _52
REMARK   20  A    between atoms: _52  and  _53
REMARK   21  A    between atoms: _52  and  _55
REMARK   22  A    between atoms: _55  and  _56
REMARK   23  A    between atoms: _56  and  _57
REMARK   24  A    between atoms: _62  and  _64
REMARK   25  A    between atoms: _64  and  _65
REMARK   26  A    between atoms: _64  and  _67
REMARK   27  A    between atoms: _67  and  _68
REMARK   28  A    between atoms: _74  and  _76
REMARK   29  A    between atoms: _76  and  _77
REMARK   30  A    between atoms: _76  and  _79
REMARK   31  A    between atoms: _79  and  _80
REMARK   32  A    between atoms: _83  and  _85
REMARK   33  A    between atoms: _85  and  _86
REMARK   34  A    between atoms: _85  and  _88
REMARK   35  A    between atoms: _88  and  _89
REMARK   36  A    between atoms: _89  and  _90
REMARK   37  A    between atoms: _90  and  _91
REMARK   38  A    between atoms: _91  and  _92
REMARK   39  A    between atoms: _96  and  _98
REMARK   40  A    between atoms: _98  and  _99
REMARK   41  A    between atoms: _98  and  _101
REMARK   42  A    between atoms: _101  and  _102
REMARK   43  A    between atoms: _102  and  _103
REMARK   44  A    between atoms: _106  and  _108
REMARK   45  A    between atoms: _108  and  _109
REMARK   46  A    between atoms: _108  and  _111
REMARK   47  A    between atoms: _111  and  _112
REMARK   48  A    between atoms: _115  and  _117
REMARK   49  A    between atoms: _117  and  _118
REMARK   50  A    between atoms: _117  and  _120
REMARK   51  A    between atoms: _120  and  _121
REMARK   52  A    between atoms: _126  and  _127
REMARK   53  A    between atoms: _129  and  _131
REMARK   54  A    between atoms: _131  and  _132
REMARK   55  A    between atoms: _131  and  _134
REMARK   56  A    between atoms: _134  and  _135
REMARK   57  A    between atoms: _138  and  _140
REMARK   58  A    between atoms: _140  and  _141
REMARK   59  A    between atoms: _140  and  _143
REMARK   60  A    between atoms: _143  and  _144
REMARK   61  A    between atoms: _147  and  _149
REMARK   62  A    between atoms: _149  and  _150
REMARK   63  A    between atoms: _149  and  _152
REMARK   64  A    between atoms: _155  and  _157
REMARK   65  A    between atoms: _157  and  _158
REMARK   66  A    between atoms: _157  and  _160
REMARK   67  A    between atoms: _160  and  _161
REMARK   68  A    between atoms: _161  and  _162
REMARK   69  A    between atoms: _162  and  _163
REMARK   70  A    between atoms: _172  and  _174
REMARK   71  A    between atoms: _174  and  _175
REMARK   72  A    between atoms: _174  and  _177
REMARK   73  A    between atoms: _177  and  _178
REMARK   74  A    between atoms: _183  and  _185
REMARK   75  A    between atoms: _185  and  _186
REMARK   76  A    between atoms: _185  and  _188
REMARK   77  A    between atoms: _188  and  _189
REMARK   78  A    between atoms: _189  and  _190
REMARK   79  A    between atoms: _193  and  _195
REMARK   80  A    between atoms: _195  and  _196
REMARK   81  A    between atoms: _195  and  _198
REMARK   82  A    between atoms: _198  and  _199
REMARK   83  A    between atoms: _199  and  _200
REMARK   84  A    between atoms: _200  and  _201
REMARK   85  A    between atoms: _201  and  _202
REMARK   86  A    between atoms: _206  and  _208
REMARK   87  A    between atoms: _208  and  _209
REMARK   88  A    between atoms: _211  and  _213
REMARK   89  A    between atoms: _213  and  _214
REMARK   90  A    between atoms: _213  and  _216
REMARK   91  A    between atoms: _219  and  _221
REMARK   92  A    between atoms: _221  and  _222
REMARK   93  A    between atoms: _221  and  _224
REMARK   94  A    between atoms: _224  and  _225
REMARK   95  A    between atoms: _227  and  _229
REMARK   96  A    between atoms: _229  and  _230
REMARK   97  A    between atoms: _229  and  _232
REMARK   98  A    between atoms: _232  and  _233
REMARK   99  A    between atoms: _235  and  _237
REMARK  100  A    between atoms: _237  and  _238
REMARK  101  A    between atoms: _237  and  _240
REMARK  102  A    between atoms: _240  and  _241
REMARK  103  A    between atoms: _247  and  _249
REMARK  104  A    between atoms: _249  and  _250
REMARK  105  A    between atoms: _249  and  _252
REMARK  106  A    between atoms: _252  and  _253
REMARK  107  A    between atoms: _256  and  _258
REMARK  108  A    between atoms: _258  and  _259
REMARK  109  A    between atoms: _258  and  _261
REMARK  110  A    between atoms: _261  and  _262
REMARK  111  A    between atoms: _265  and  _267
REMARK  112  A    between atoms: _267  and  _268
REMARK  113  A    between atoms: _267  and  _270
REMARK  114  A    between atoms: _270  and  _271
REMARK  115  A    between atoms: _271  and  _272
REMARK  116  A    between atoms: _274  and  _276
REMARK  117  A    between atoms: _276  and  _277
REMARK  118  A    between atoms: _276  and  _279
REMARK  119  A    between atoms: _279  and  _280
REMARK  120  A    between atoms: _286  and  _288
REMARK  121  A    between atoms: _288  and  _289
REMARK  122  A    between atoms: _288  and  _291
REMARK  123  A    between atoms: _293  and  _295
REMARK  124  A    between atoms: _295  and  _296
REMARK  125  A    between atoms: _299  and  _301
REMARK  126  A    between atoms: _301  and  _302
REMARK  127  A    between atoms: _304  and  _306
REMARK  128  A    between atoms: _306  and  _307
REMARK  129  A    between atoms: _306  and  _309
REMARK  130  A    between atoms: _309  and  _310
REMARK  131  A    between atoms: _310  and  _311
REMARK  132  A    between atoms: _314  and  _316
REMARK  133  A    between atoms: _316  and  _317
REMARK  134  A    between atoms: _316  and  _319
REMARK  135  A    between atoms: _319  and  _320
REMARK  136  A    between atoms: _323  and  _325
REMARK  137  A    between atoms: _325  and  _326
REMARK  138  A    between atoms: _329  and  _331
REMARK  139  A    between atoms: _331  and  _332
REMARK  140  A    between atoms: _331  and  _334
REMARK  141  A    between atoms: _334  and  _335
REMARK  142  A    between atoms: _335  and  _458
REMARK  143  A    between atoms: _336  and  _338
REMARK  144  A    between atoms: _338  and  _339
REMARK  145  A    between atoms: _338  and  _341
REMARK  146  A    between atoms: _341  and  _342
REMARK  147  A    between atoms: _342  and  _343
REMARK  148  A    between atoms: _348  and  _350
REMARK  149  A    between atoms: _350  and  _351
REMARK  150  A    between atoms: _353  and  _355
REMARK  151  A    between atoms: _355  and  _356
REMARK  152  A    between atoms: _355  and  _358
REMARK  153  A    between atoms: _358  and  _359
REMARK  154  A    between atoms: _362  and  _364
REMARK  155  A    between atoms: _364  and  _365
REMARK  156  A    between atoms: _364  and  _367
REMARK  157  A    between atoms: _367  and  _368
REMARK  158  A    between atoms: _370  and  _372
REMARK  159  A    between atoms: _372  and  _373
REMARK  160  A    between atoms: _375  and  _377
REMARK  161  A    between atoms: _377  and  _378
REMARK  162  A    between atoms: _380  and  _382
REMARK  163  A    between atoms: _382  and  _383
REMARK  164  A    between atoms: _382  and  _385
REMARK  165  A    between atoms: _385  and  _386
REMARK  166  A    between atoms: _391  and  _393
REMARK  167  A    between atoms: _393  and  _394
REMARK  168  A    between atoms: _393  and  _396
REMARK  169  A    between atoms: _396  and  _397
REMARK  170  A    between atoms: _400  and  _402
REMARK  171  A    between atoms: _402  and  _403
REMARK  172  A    between atoms: _402  and  _405
REMARK  173  A    between atoms: _408  and  _410
REMARK  174  A    between atoms: _410  and  _411
REMARK  175  A    between atoms: _410  and  _413
REMARK  176  A    between atoms: _413  and  _414
REMARK  177  A    between atoms: _416  and  _418
REMARK  178  A    between atoms: _418  and  _419
REMARK  179  A    between atoms: _418  and  _421
REMARK  180  A    between atoms: _421  and  _422
REMARK  181  A    between atoms: _432  and  _434
REMARK  182  A    between atoms: _434  and  _435
REMARK  183  A    between atoms: _437  and  _439
REMARK  184  A    between atoms: _439  and  _440
REMARK  185  A    between atoms: _439  and  _442
REMARK  186  A    between atoms: _442  and  _443
REMARK  187  A    between atoms: _443  and  _444
REMARK  188  A    between atoms: _447  and  _449
REMARK  189  A    between atoms: _449  and  _450
REMARK  190  A    between atoms: _452  and  _454
REMARK  191  A    between atoms: _454  and  _455
REMARK  192  A    between atoms: _454  and  _457
REMARK  193  A    between atoms: _457  and  _458
REMARK  194  A    between atoms: _459  and  _461
REMARK  195  A    between atoms: _461  and  _462
REMARK  196  A    between atoms: _465  and  _467
REMARK  197  A    between atoms: _467  and  _468
REMARK  198  A    between atoms: _467  and  _470
REMARK  199  A    between atoms: _470  and  _471
REMARK  200  A    between atoms: _471  and  _472
REMARK  201  A    between atoms: _472  and  _473
REMARK  202  A    between atoms: _482  and  _484
REMARK  203  A    between atoms: _484  and  _485
REMARK  204  A    between atoms: _484  and  _487
REMARK  205  A    between atoms: _487  and  _488
REMARK  206  A    between atoms: _488  and  _489
REMARK  207  A    between atoms: _489  and  _490
REMARK  208  A    between atoms: _490  and  _491
REMARK  209  A    between atoms: _495  and  _497
REMARK  210  A    between atoms: _497  and  _498
REMARK  211  A    between atoms: _497  and  _500
REMARK  212  A    between atoms: _500  and  _501
REMARK  213  A    between atoms: _506  and  _507
REMARK  214  A    between atoms: _509  and  _511
REMARK  215  A    between atoms: _511  and  _512
REMARK  216  A    between atoms: _514  and  _516
REMARK  217  A    between atoms: _516  and  _517
REMARK  218  A    between atoms: _516  and  _519
REMARK  219  A    between atoms: _519  and  _520
REMARK  220  A    between atoms: _523  and  _525
REMARK  221  A    between atoms: _525  and  _526
REMARK  222  A    between atoms: _525  and  _528
REMARK  223  A    between atoms: _528  and  _529
REMARK  224  A    between atoms: _534  and  _535
REMARK  225  A    between atoms: _537  and  _539
REMARK  226  A    between atoms: _539  and  _540
REMARK  227  A    between atoms: _539  and  _542
REMARK  228  A    between atoms: _542  and  _543
REMARK                            x       y       z     vdW  Elec       q    Type
REMARK                         _______ _______ _______ _____ _____    ______ ____
ROOT
ATOM      1  CA  ASP A   1       3.362   2.377  16.823  0.00  0.00    +0.144 C 
ENDROOT
BRANCH   1   2
ATOM      2  N   ASP A   1       2.882   1.068  16.402  0.00  0.00    -0.239 NA
ATOM      3  H   ASP A   1       2.289   0.516  17.054  0.00  0.00    +0.142 HD
ENDBRANCH   1   2
BRANCH   1   4
ATOM      4  C   ASP A   1       4.757   2.243  17.431  0.00  0.00    +0.225 C 
ATOM      5  O   ASP A   1       4.946   2.265  18.651  0.00  0.00    -0.287 OA
ENDBRANCH   1   4
BRANCH   1   6
ATOM      6  CB  ASP A   1       2.387   3.037  17.791  0.00  0.00    +0.139 C 
BRANCH   6   7
ATOM      7  CG  ASP A   1       2.677   4.525  17.988  0.00  0.00    +0.367 C 
ATOM      8  OD2 ASP A   1       2.079   5.108  18.930  0.00  0.00    -0.246 OA
ATOM      9  OD1 ASP A   1       3.482   5.079  17.181  0.00  0.00    -0.246 OA
ENDBRANCH   6   7
ENDBRANCH   1   6
TORSDOF 4
REMARK  Name = ../refined-set-2016/2y5f/2y5f_pocket.pdb
REMARK  228 active torsions:
REMARK  status: ('A' for Active; 'I' for Inactive)
REMARK    1  A    between atoms: _1  and  _5
REMARK    2  A    between atoms: _5  and  _6
REMARK    3  A    between atoms: _5  and  _8
REMARK    4  A    between atoms: _8  and  _9
REMARK    5  A    between atoms: _12  and  _14
REMARK    6  A    between atoms: _14  and  _15
REMARK    7  A    between atoms: _14  and  _17
REMARK    8  A    between atoms: _20  and  _22
REMARK    9  A    between atoms: _22  and  _23
REMARK   10  A    between atoms: _22  and  _25
REMARK   11  A    between atoms: _25  and  _26
REMARK   12  A    between atoms: _32  and  _34
REMARK   13  A    between atoms: _34  and  _35
REMARK   14  A    between atoms: _34  and  _37
REMARK   15  A    between atoms: _39  and  _41
REMARK   16  A    between atoms: _41  and  _42
REMARK   17  A    between atoms: _41  and  _44
REMARK   18  A    between atoms: _44  and  _45
REMARK   19  A    between atoms: _50  and  _52
REMARK   20  A    between atoms: _52  and  _53
REMARK   21  A    between atoms: _52  and  _55
REMARK   22  A    between atoms: _55  and  _56
REMARK   23  A    between atoms: _56  and  _57
REMARK   24  A    between atoms: _62  and  _64
REMARK   25  A    between atoms: _64  and  _65
REMARK   26  A    between atoms: _64  and  _67
REMARK   27  A    between atoms: _67  and  _68
REMARK   28  A    between atoms: _74  and  _76
REMARK   29  A    between atoms: _76  and  _77
REMARK   30  A    between atoms: _76  and  _79
REMARK   31  A    between atoms: _79  and  _80
REMARK   32  A    between atoms: _83  and  _85
REMARK   33  A    between atoms: _85  and  _86
REMARK   34  A    between atoms: _85  and  _88
REMARK   35  A    between atoms: _88  and  _89
REMARK   36  A    between atoms: _89  and  _90
REMARK   37  A    between atoms: _90  and  _91
REMARK   38  A    between atoms: _91  and  _92
REMARK   39  A    between atoms: _96  and  _98
REMARK   40  A    between atoms: _98  and  _99
REMARK   41  A    between atoms: _98  and  _101
REMARK   42  A    between atoms: _101  and  _102
REMARK   43  A    between atoms: _102  and  _103
REMARK   44  A    between atoms: _106  and  _108
REMARK   45  A    between atoms: _108  and  _109
REMARK   46  A    between atoms: _108  and  _111
REMARK   47  A    between atoms: _111  and  _112
REMARK   48  A    between atoms: _115  and  _117
REMARK   49  A    between atoms: _117  and  _118
REMARK   50  A    between atoms: _117  and  _120
REMARK   51  A    between atoms: _120  and  _121
REMARK   52  A    between atoms: _126  and  _127
REMARK   53  A    between atoms: _129  and  _131
REMARK   54  A    between atoms: _131  and  _132
REMARK   55  A    between atoms: _131  and  _134
REMARK   56  A    between atoms: _134  and  _135
REMARK   57  A    between atoms: _138  and  _140
REMARK   58  A    between atoms: _140  and  _141
REMARK   59  A    between atoms: _140  and  _143
REMARK   60  A    between atoms: _143  and  _144
REMARK   61  A    between atoms: _147  and  _149
REMARK   62  A    between atoms: _149  and  _150
REMARK   63  A    between atoms: _149  and  _152
REMARK   64  A    between atoms: _155  and  _157
REMARK   65  A    between atoms: _157  and  _158
REMARK   66  A    between atoms: _157  and  _160
REMARK   67  A    between atoms: _160  and  _161
REMARK   68  A    between atoms: _161  and  _162
REMARK   69  A    between atoms: _162  and  _163
REMARK   70  A    between atoms: _172  and  _174
REMARK   71  A    between atoms: _174  and  _175
REMARK   72  A    between atoms: _174  and  _177
REMARK   73  A    between atoms: _177  and  _178
REMARK   74  A    between atoms: _183  and  _185
REMARK   75  A    between atoms: _185  and  _186
REMARK   76  A    between atoms: _185  and  _188
REMARK   77  A    between atoms: _188  and  _189
REMARK   78  A    between atoms: _189  and  _190
REMARK   79  A    between atoms: _193  and  _195
REMARK   80  A    between atoms: _195  and  _196
REMARK   81  A    between atoms: _195  and  _198
REMARK   82  A    between atoms: _198  and  _199
REMARK   83  A    between atoms: _199  and  _200
REMARK   84  A    between atoms: _200  and  _201
REMARK   85  A    between atoms: _201  and  _202
REMARK   86  A    between atoms: _206  and  _208
REMARK   87  A    between atoms: _208  and  _209
REMARK   88  A    between atoms: _211  and  _213
REMARK   89  A    between atoms: _213  and  _214
REMARK   90  A    between atoms: _213  and  _216
REMARK   91  A    between atoms: _219  and  _221
REMARK   92  A    between atoms: _221  and  _222
REMARK   93  A    between atoms: _221  and  _224
REMARK   94  A    between atoms: _224  and  _225
REMARK   95  A    between atoms: _227  and  _229
REMARK   96  A    between atoms: _229  and  _230
REMARK   97  A    between atoms: _229  and  _232
REMARK   98  A    between atoms: _232  and  _233
REMARK   99  A    between atoms: _235  and  _237
REMARK  100  A    between atoms: _237  and  _238
REMARK  101  A    between atoms: _237  and  _240
REMARK  102  A    between atoms: _240  and  _241
REMARK  103  A    between atoms: _247  and  _249
REMARK  104  A    between atoms: _249  and  _250
REMARK  105  A    between atoms: _249  and  _252
REMARK  106  A    between atoms: _252  and  _253
REMARK  107  A    between atoms: _256  and  _258
REMARK  108  A    between atoms: _258  and  _259
REMARK  109  A    between atoms: _258  and  _261
REMARK  110  A    between atoms: _261  and  _262
REMARK  111  A    between atoms: _265  and  _267
REMARK  112  A    between atoms: _267  and  _268
REMARK  113  A    between atoms: _267  and  _270
REMARK  114  A    between atoms: _270  and  _271
REMARK  115  A    between atoms: _271  and  _272
REMARK  116  A    between atoms: _274  and  _276
REMARK  117  A    between atoms: _276  and  _277
REMARK  118  A    between atoms: _276  and  _279
REMARK  119  A    between atoms: _279  and  _280
REMARK  120  A    between atoms: _286  and  _288
REMARK  121  A    between atoms: _288  and  _289
REMARK  122  A    between atoms: _288  and  _291
REMARK  123  A    between atoms: _293  and  _295
REMARK  124  A    between atoms: _295  and  _296
REMARK  125  A    between atoms: _299  and  _301
REMARK  126  A    between atoms: _301  and  _302
REMARK  127  A    between atoms: _304  and  _306
REMARK  128  A    between atoms: _306  and  _307
REMARK  129  A    between atoms: _306  and  _309
REMARK  130  A    between atoms: _309  and  _310
REMARK  131  A    between atoms: _310  and  _311
REMARK  132  A    between atoms: _314  and  _316
REMARK  133  A    between atoms: _316  and  _317
REMARK  134  A    between atoms: _316  and  _319
REMARK  135  A    between atoms: _319  and  _320
REMARK  136  A    between atoms: _323  and  _325
REMARK  137  A    between atoms: _325  and  _326
REMARK  138  A    between atoms: _329  and  _331
REMARK  139  A    between atoms: _331  and  _332
REMARK  140  A    between atoms: _331  and  _334
REMARK  141  A    between atoms: _334  and  _335
REMARK  142  A    between atoms: _335  and  _458
REMARK  143  A    between atoms: _336  and  _338
REMARK  144  A    between atoms: _338  and  _339
REMARK  145  A    between atoms: _338  and  _341
REMARK  146  A    between atoms: _341  and  _342
REMARK  147  A    between atoms: _342  and  _343
REMARK  148  A    between atoms: _348  and  _350
REMARK  149  A    between atoms: _350  and  _351
REMARK  150  A    between atoms: _353  and  _355
REMARK  151  A    between atoms: _355  and  _356
REMARK  152  A    between atoms: _355  and  _358
REMARK  153  A    between atoms: _358  and  _359
REMARK  154  A    between atoms: _362  and  _364
REMARK  155  A    between atoms: _364  and  _365
REMARK  156  A    between atoms: _364  and  _367
REMARK  157  A    between atoms: _367  and  _368
REMARK  158  A    between atoms: _370  and  _372
REMARK  159  A    between atoms: _372  and  _373
REMARK  160  A    between atoms: _375  and  _377
REMARK  161  A    between atoms: _377  and  _378
REMARK  162  A    between atoms: _380  and  _382
REMARK  163  A    between atoms: _382  and  _383
REMARK  164  A    between atoms: _382  and  _385
REMARK  165  A    between atoms: _385  and  _386
REMARK  166  A    between atoms: _391  and  _393
REMARK  167  A    between atoms: _393  and  _394
REMARK  168  A    between atoms: _393  and  _396
REMARK  169  A    between atoms: _396  and  _397
REMARK  170  A    between atoms: _400  and  _402
REMARK  171  A    between atoms: _402  and  _403
REMARK  172  A    between atoms: _402  and  _405
REMARK  173  A    between atoms: _408  and  _410
REMARK  174  A    between atoms: _410  and  _411
REMARK  175  A    between atoms: _410  and  _413
REMARK  176  A    between atoms: _413  and  _414
REMARK  177  A    between atoms: _416  and  _418
REMARK  178  A    between atoms: _418  and  _419
REMARK  179  A    between atoms: _418  and  _421
REMARK  180  A    between atoms: _421  and  _422
REMARK  181  A    between atoms: _432  and  _434
REMARK  182  A    between atoms: _434  and  _435
REMARK  183  A    between atoms: _437  and  _439
REMARK  184  A    between atoms: _439  and  _440
REMARK  185  A    between atoms: _439  and  _442
REMARK  186  A    between atoms: _442  and  _443
REMARK  187  A    between atoms: _443  and  _444
REMARK  188  A    between atoms: _447  and  _449
REMARK  189  A    between atoms: _449  and  _450
REMARK  190  A    between atoms: _452  and  _454
REMARK  191  A    between atoms: _454  and  _455
REMARK  192  A    between atoms: _454  and  _457
REMARK  193  A    between atoms: _457  and  _458
REMARK  194  A    between atoms: _459  and  _461
REMARK  195  A    between atoms: _461  and  _462
REMARK  196  A    between atoms: _465  and  _467
REMARK  197  A    between atoms: _467  and  _468
REMARK  198  A    between atoms: _467  and  _470
REMARK  199  A    between atoms: _470  and  _471
REMARK  200  A    between atoms: _471  and  _472
REMARK  201  A    between atoms: _472  and  _473
REMARK  202  A    between atoms: _482  and  _484
REMARK  203  A    between atoms: _484  and  _485
REMARK  204  A    between atoms: _484  and  _487
REMARK  205  A    between atoms: _487  and  _488
REMARK  206  A    between atoms: _488  and  _489
REMARK  207  A    between atoms: _489  and  _490
REMARK  208  A    between atoms: _490  and  _491
REMARK  209  A    between atoms: _495  and  _497
REMARK  210  A    between atoms: _497  and  _498
REMARK  211  A    between atoms: _497  and  _500
REMARK  212  A    between atoms: _500  and  _501
REMARK  213  A    between atoms: _506  and  _507
REMARK  214  A    between atoms: _509  and  _511
REMARK  215  A    between atoms: _511  and  _512
REMARK  216  A    between atoms: _514  and  _516
REMARK  217  A    between atoms: _516  and  _517
REMARK  218  A    between atoms: _516  and  _519
REMARK  219  A    between atoms: _519  and  _520
REMARK  220  A    between atoms: _523  and  _525
REMARK  221  A    between atoms: _525  and  _526
REMARK  222  A    between atoms: _525  and  _528
REMARK  223  A    between atoms: _528  and  _529
REMARK  224  A    between atoms: _534  and  _535
REMARK  225  A    between atoms: _537  and  _539
REMARK  226  A    between atoms: _539  and  _540
REMARK  227  A    between atoms: _539  and  _542
REMARK  228  A    between atoms: _542  and  _543
REMARK                            x       y       z     vdW  Elec       q    Type
REMARK                         _______ _______ _______ _____ _____    ______ ____
ROOT
ATOM      1  CA  VAL A   1       5.979   4.500  32.886  0.00  0.00    +0.133 C 
ENDROOT
BRANCH   1   2
ATOM      2  CB  VAL A   1       4.554   4.762  32.327  0.00  0.00    +0.023 C 
ATOM      3  CG2 VAL A   1       3.541   5.307  33.358  0.00  0.00    +0.002 C 
ATOM      4  CG1 VAL A   1       4.571   5.619  31.096  0.00  0.00    +0.002 C 
ENDBRANCH   1   2
BRANCH   1   5
ATOM      5  N   VAL A   1       5.966   3.570  34.020  0.00  0.00    -0.239 NA
ATOM      6  H   VAL A   1       5.404   3.817  34.859  0.00  0.00    +0.142 HD
ENDBRANCH   1   5
BRANCH   1   7
ATOM      7  C   VAL A   1       6.619   5.797  33.413  0.00  0.00    +0.224 C 
ATOM      8  O   VAL A   1       6.552   6.129  34.603  0.00  0.00    -0.287 OA
ENDBRANCH   1   7
TORSDOF 3
REMARK  Name = ../refined-set-2016/2y5f/2y5f_pocket.pdb
REMARK  228 active torsions:
REMARK  status: ('A' for Active; 'I' for Inactive)
REMARK    1  A    between atoms: _1  and  _5
REMARK    2  A    between atoms: _5  and  _6
REMARK    3  A    between atoms: _5  and  _8
REMARK    4  A    between atoms: _8  and  _9
REMARK    5  A    between atoms: _12  and  _14
REMARK    6  A    between atoms: _14  and  _15
REMARK    7  A    between atoms: _14  and  _17
REMARK    8  A    between atoms: _20  and  _22
REMARK    9  A    between atoms: _22  and  _23
REMARK   10  A    between atoms: _22  and  _25
REMARK   11  A    between atoms: _25  and  _26
REMARK   12  A    between atoms: _32  and  _34
REMARK   13  A    between atoms: _34  and  _35
REMARK   14  A    between atoms: _34  and  _37
REMARK   15  A    between atoms: _39  and  _41
REMARK   16  A    between atoms: _41  and  _42
REMARK   17  A    between atoms: _41  and  _44
REMARK   18  A    between atoms: _44  and  _45
REMARK   19  A    between atoms: _50  and  _52
REMARK   20  A    between atoms: _52  and  _53
REMARK   21  A    between atoms: _52  and  _55
REMARK   22  A    between atoms: _55  and  _56
REMARK   23  A    between atoms: _56  and  _57
REMARK   24  A    between atoms: _62  and  _64
REMARK   25  A    between atoms: _64  and  _65
REMARK   26  A    between atoms: _64  and  _67
REMARK   27  A    between atoms: _67  and  _68
REMARK   28  A    between atoms: _74  and  _76
REMARK   29  A    between atoms: _76  and  _77
REMARK   30  A    between atoms: _76  and  _79
REMARK   31  A    between atoms: _79  and  _80
REMARK   32  A    between atoms: _83  and  _85
REMARK   33  A    between atoms: _85  and  _86
REMARK   34  A    between atoms: _85  and  _88
REMARK   35  A    between atoms: _88  and  _89
REMARK   36  A    between atoms: _89  and  _90
REMARK   37  A    between atoms: _90  and  _91
REMARK   38  A    between atoms: _91  and  _92
REMARK   39  A    between atoms: _96  and  _98
REMARK   40  A    between atoms: _98  and  _99
REMARK   41  A    between atoms: _98  and  _101
REMARK   42  A    between atoms: _101  and  _102
REMARK   43  A    between atoms: _102  and  _103
REMARK   44  A    between atoms: _106  and  _108
REMARK   45  A    between atoms: _108  and  _109
REMARK   46  A    between atoms: _108  and  _111
REMARK   47  A    between atoms: _111  and  _112
REMARK   48  A    between atoms: _115  and  _117
REMARK   49  A    between atoms: _117  and  _118
REMARK   50  A    between atoms: _117  and  _120
REMARK   51  A    between atoms: _120  and  _121
REMARK   52  A    between atoms: _126  and  _127
REMARK   53  A    between atoms: _129  and  _131
REMARK   54  A    between atoms: _131  and  _132
REMARK   55  A    between atoms: _131  and  _134
REMARK   56  A    between atoms: _134  and  _135
REMARK   57  A    between atoms: _138  and  _140
REMARK   58  A    between atoms: _140  and  _141
REMARK   59  A    between atoms: _140  and  _143
REMARK   60  A    between atoms: _143  and  _144
REMARK   61  A    between atoms: _147  and  _149
REMARK   62  A    between atoms: _149  and  _150
REMARK   63  A    between atoms: _149  and  _152
REMARK   64  A    between atoms: _155  and  _157
REMARK   65  A    between atoms: _157  and  _158
REMARK   66  A    between atoms: _157  and  _160
REMARK   67  A    between atoms: _160  and  _161
REMARK   68  A    between atoms: _161  and  _162
REMARK   69  A    between atoms: _162  and  _163
REMARK   70  A    between atoms: _172  and  _174
REMARK   71  A    between atoms: _174  and  _175
REMARK   72  A    between atoms: _174  and  _177
REMARK   73  A    between atoms: _177  and  _178
REMARK   74  A    between atoms: _183  and  _185
REMARK   75  A    between atoms: _185  and  _186
REMARK   76  A    between atoms: _185  and  _188
REMARK   77  A    between atoms: _188  and  _189
REMARK   78  A    between atoms: _189  and  _190
REMARK   79  A    between atoms: _193  and  _195
REMARK   80  A    between atoms: _195  and  _196
REMARK   81  A    between atoms: _195  and  _198
REMARK   82  A    between atoms: _198  and  _199
REMARK   83  A    between atoms: _199  and  _200
REMARK   84  A    between atoms: _200  and  _201
REMARK   85  A    between atoms: _201  and  _202
REMARK   86  A    between atoms: _206  and  _208
REMARK   87  A    between atoms: _208  and  _209
REMARK   88  A    between atoms: _211  and  _213
REMARK   89  A    between atoms: _213  and  _214
REMARK   90  A    between atoms: _213  and  _216
REMARK   91  A    between atoms: _219  and  _221
REMARK   92  A    between atoms: _221  and  _222
REMARK   93  A    between atoms: _221  and  _224
REMARK   94  A    between atoms: _224  and  _225
REMARK   95  A    between atoms: _227  and  _229
REMARK   96  A    between atoms: _229  and  _230
REMARK   97  A    between atoms: _229  and  _232
REMARK   98  A    between atoms: _232  and  _233
REMARK   99  A    between atoms: _235  and  _237
REMARK  100  A    between atoms: _237  and  _238
REMARK  101  A    between atoms: _237  and  _240
REMARK  102  A    between atoms: _240  and  _241
REMARK  103  A    between atoms: _247  and  _249
REMARK  104  A    between atoms: _249  and  _250
REMARK  105  A    between atoms: _249  and  _252
REMARK  106  A    between atoms: _252  and  _253
REMARK  107  A    between atoms: _256  and  _258
REMARK  108  A    between atoms: _258  and  _259
REMARK  109  A    between atoms: _258  and  _261
REMARK  110  A    between atoms: _261  and  _262
REMARK  111  A    between atoms: _265  and  _267
REMARK  112  A    between atoms: _267  and  _268
REMARK  113  A    between atoms: _267  and  _270
REMARK  114  A    between atoms: _270  and  _271
REMARK  115  A    between atoms: _271  and  _272
REMARK  116  A    between atoms: _274  and  _276
REMARK  117  A    between atoms: _276  and  _277
REMARK  118  A    between atoms: _276  and  _279
REMARK  119  A    between atoms: _279  and  _280
REMARK  120  A    between atoms: _286  and  _288
REMARK  121  A    between atoms: _288  and  _289
REMARK  122  A    between atoms: _288  and  _291
REMARK  123  A    between atoms: _293  and  _295
REMARK  124  A    between atoms: _295  and  _296
REMARK  125  A    between atoms: _299  and  _301
REMARK  126  A    between atoms: _301  and  _302
REMARK  127  A    between atoms: _304  and  _306
REMARK  128  A    between atoms: _306  and  _307
REMARK  129  A    between atoms: _306  and  _309
REMARK  130  A    between atoms: _309  and  _310
REMARK  131  A    between atoms: _310  and  _311
REMARK  132  A    between atoms: _314  and  _316
REMARK  133  A    between atoms: _316  and  _317
REMARK  134  A    between atoms: _316  and  _319
REMARK  135  A    between atoms: _319  and  _320
REMARK  136  A    between atoms: _323  and  _325
REMARK  137  A    between atoms: _325  and  _326
REMARK  138  A    between atoms: _329  and  _331
REMARK  139  A    between atoms: _331  and  _332
REMARK  140  A    between atoms: _331  and  _334
REMARK  141  A    between atoms: _334  and  _335
REMARK  142  A    between atoms: _335  and  _458
REMARK  143  A    between atoms: _336  and  _338
REMARK  144  A    between atoms: _338  and  _339
REMARK  145  A    between atoms: _338  and  _341
REMARK  146  A    between atoms: _341  and  _342
REMARK  147  A    between atoms: _342  and  _343
REMARK  148  A    between atoms: _348  and  _350
REMARK  149  A    between atoms: _350  and  _351
REMARK  150  A    between atoms: _353  and  _355
REMARK  151  A    between atoms: _355  and  _356
REMARK  152  A    between atoms: _355  and  _358
REMARK  153  A    between atoms: _358  and  _359
REMARK  154  A    between atoms: _362  and  _364
REMARK  155  A    between atoms: _364  and  _365
REMARK  156  A    between atoms: _364  and  _367
REMARK  157  A    between atoms: _367  and  _368
REMARK  158  A    between atoms: _370  and  _372
REMARK  159  A    between atoms: _372  and  _373
REMARK  160  A    between atoms: _375  and  _377
REMARK  161  A    between atoms: _377  and  _378
REMARK  162  A    between atoms: _380  and  _382
REMARK  163  A    between atoms: _382  and  _383
REMARK  164  A    between atoms: _382  and  _385
REMARK  165  A    between atoms: _385  and  _386
REMARK  166  A    between atoms: _391  and  _393
REMARK  167  A    between atoms: _393  and  _394
REMARK  168  A    between atoms: _393  and  _396
REMARK  169  A    between atoms: _396  and  _397
REMARK  170  A    between atoms: _400  and  _402
REMARK  171  A    between atoms: _402  and  _403
REMARK  172  A    between atoms: _402  and  _405
REMARK  173  A    between atoms: _408  and  _410
REMARK  174  A    between atoms: _410  and  _411
REMARK  175  A    between atoms: _410  and  _413
REMARK  176  A    between atoms: _413  and  _414
REMARK  177  A    between atoms: _416  and  _418
REMARK  178  A    between atoms: _418  and  _419
REMARK  179  A    between atoms: _418  and  _421
REMARK  180  A    between atoms: _421  and  _422
REMARK  181  A    between atoms: _432  and  _434
REMARK  182  A    between atoms: _434  and  _435
REMARK  183  A    between atoms: _437  and  _439
REMARK  184  A    between atoms: _439  and  _440
REMARK  185  A    between atoms: _439  and  _442
REMARK  186  A    between atoms: _442  and  _443
REMARK  187  A    between atoms: _443  and  _444
REMARK  188  A    between atoms: _447  and  _449
REMARK  189  A    between atoms: _449  and  _450
REMARK  190  A    between atoms: _452  and  _454
REMARK  191  A    between atoms: _454  and  _455
REMARK  192  A    between atoms: _454  and  _457
REMARK  193  A    between atoms: _457  and  _458
REMARK  194  A    between atoms: _459  and  _461
REMARK  195  A    between atoms: _461  and  _462
REMARK  196  A    between atoms: _465  and  _467
REMARK  197  A    between atoms: _467  and  _468
REMARK  198  A    between atoms: _467  and  _470
REMARK  199  A    between atoms: _470  and  _471
REMARK  200  A    between atoms: _471  and  _472
REMARK  201  A    between atoms: _472  and  _473
REMARK  202  A    between atoms: _482  and  _484
REMARK  203  A    between atoms: _484  and  _485
REMARK  204  A    between atoms: _484  and  _487
REMARK  205  A    between atoms: _487  and  _488
REMARK  206  A    between atoms: _488  and  _489
REMARK  207  A    between atoms: _489  and  _490
REMARK  208  A    between atoms: _490  and  _491
REMARK  209  A    between atoms: _495  and  _497
REMARK  210  A    between atoms: _497  and  _498
REMARK  211  A    between atoms: _497  and  _500
REMARK  212  A    between atoms: _500  and  _501
REMARK  213  A    between atoms: _506  and  _507
REMARK  214  A    between atoms: _509  and  _511
REMARK  215  A    between atoms: _511  and  _512
REMARK  216  A    between atoms: _514  and  _516
REMARK  217  A    between atoms: _516  and  _517
REMARK  218  A    between atoms: _516  and  _519
REMARK  219  A    between atoms: _519  and  _520
REMARK  220  A    between atoms: _523  and  _525
REMARK  221  A    between atoms: _525  and  _526
REMARK  222  A    between atoms: _525  and  _528
REMARK  223  A    between atoms: _528  and  _529
REMARK  224  A    between atoms: _534  and  _535
REMARK  225  A    between atoms: _537  and  _539
REMARK  226  A    between atoms: _539  and  _540
REMARK  227  A    between atoms: _539  and  _542
REMARK  228  A    between atoms: _542  and  _543
REMARK                            x       y       z     vdW  Elec       q    Type
REMARK                         _______ _______ _______ _____ _____    ______ ____
ROOT
ATOM      1  NE  ARG A   1      -1.062  18.663  27.247  0.00  0.00    -0.265 N 
ATOM      2  HE  ARG A   1      -0.114  18.948  26.928  0.00  0.00    +0.259 HD
ATOM      3  CZ  ARG A   1      -2.092  18.914  26.445  0.00  0.00    +0.342 C 
ATOM      4  NH2 ARG A   1      -3.330  18.572  26.800  0.00  0.00    -0.292 N 
ATOM      5 HH21 ARG A   1      -3.498  18.103  27.713  0.00  0.00    +0.255 HD
ATOM      6 HH22 ARG A   1      -4.128  18.774  26.164  0.00  0.00    +0.255 HD
ATOM      7  NH1 ARG A   1      -1.887  19.504  25.271  0.00  0.00    -0.292 N 
ATOM      8 HH11 ARG A   1      -0.923  19.768  24.983  0.00  0.00    +0.255 HD
ATOM      9 HH12 ARG A   1      -2.691  19.702  24.641  0.00  0.00    +0.255 HD
ENDROOT
BRANCH   1  10
ATOM     10  CD  ARG A   1      -1.179  18.016  28.539  0.00  0.00    +0.174 C 
BRANCH  10  11
ATOM     11  CG  ARG A   1       0.195  17.793  29.192  0.00  0.00    +0.045 C 
BRANCH  11  12
ATOM     12  CB  ARG A   1       0.049  17.028  30.488  0.00  0.00    +0.029 C 
BRANCH  12  13
ATOM     13  CA  ARG A   1       1.350  16.800  31.259  0.00  0.00    +0.133 C 
BRANCH  13  14
ATOM     14  N   ARG A   1       2.312  16.033  30.449  0.00  0.00    -0.239 NA
ATOM     15  H   ARG A   1       2.055  15.753  29.481  0.00  0.00    +0.142 HD
ENDBRANCH  13  14
BRANCH  13  16
ATOM     16  C   ARG A   1       1.012  16.136  32.592  0.00  0.00    +0.224 C 
ATOM     17  O   ARG A   1       0.941  14.907  32.683  0.00  0.00    -0.287 OA
ENDBRANCH  13  16
ENDBRANCH  12  13
ENDBRANCH  11  12
ENDBRANCH  10  11
ENDBRANCH   1  10
TORSDOF 6
REMARK  Name = ../refined-set-2016/2y5f/2y5f_pocket.pdb
REMARK  228 active torsions:
REMARK  status: ('A' for Active; 'I' for Inactive)
REMARK    1  A    between atoms: _1  and  _5
REMARK    2  A    between atoms: _5  and  _6
REMARK    3  A    between atoms: _5  and  _8
REMARK    4  A    between atoms: _8  and  _9
REMARK    5  A    between atoms: _12  and  _14
REMARK    6  A    between atoms: _14  and  _15
REMARK    7  A    between atoms: _14  and  _17
REMARK    8  A    between atoms: _20  and  _22
REMARK    9  A    between atoms: _22  and  _23
REMARK   10  A    between atoms: _22  and  _25
REMARK   11  A    between atoms: _25  and  _26
REMARK   12  A    between atoms: _32  and  _34
REMARK   13  A    between atoms: _34  and  _35
REMARK   14  A    between atoms: _34  and  _37
REMARK   15  A    between atoms: _39  and  _41
REMARK   16  A    between atoms: _41  and  _42
REMARK   17  A    between atoms: _41  and  _44
REMARK   18  A    between atoms: _44  and  _45
REMARK   19  A    between atoms: _50  and  _52
REMARK   20  A    between atoms: _52  and  _53
REMARK   21  A    between atoms: _52  and  _55
REMARK   22  A    between atoms: _55  and  _56
REMARK   23  A    between atoms: _56  and  _57
REMARK   24  A    between atoms: _62  and  _64
REMARK   25  A    between atoms: _64  and  _65
REMARK   26  A    between atoms: _64  and  _67
REMARK   27  A    between atoms: _67  and  _68
REMARK   28  A    between atoms: _74  and  _76
REMARK   29  A    between atoms: _76  and  _77
REMARK   30  A    between atoms: _76  and  _79
REMARK   31  A    between atoms: _79  and  _80
REMARK   32  A    between atoms: _83  and  _85
REMARK   33  A    between atoms: _85  and  _86
REMARK   34  A    between atoms: _85  and  _88
REMARK   35  A    between atoms: _88  and  _89
REMARK   36  A    between atoms: _89  and  _90
REMARK   37  A    between atoms: _90  and  _91
REMARK   38  A    between atoms: _91  and  _92
REMARK   39  A    between atoms: _96  and  _98
REMARK   40  A    between atoms: _98  and  _99
REMARK   41  A    between atoms: _98  and  _101
REMARK   42  A    between atoms: _101  and  _102
REMARK   43  A    between atoms: _102  and  _103
REMARK   44  A    between atoms: _106  and  _108
REMARK   45  A    between atoms: _108  and  _109
REMARK   46  A    between atoms: _108  and  _111
REMARK   47  A    between atoms: _111  and  _112
REMARK   48  A    between atoms: _115  and  _117
REMARK   49  A    between atoms: _117  and  _118
REMARK   50  A    between atoms: _117  and  _120
REMARK   51  A    between atoms: _120  and  _121
REMARK   52  A    between atoms: _126  and  _127
REMARK   53  A    between atoms: _129  and  _131
REMARK   54  A    between atoms: _131  and  _132
REMARK   55  A    between atoms: _131  and  _134
REMARK   56  A    between atoms: _134  and  _135
REMARK   57  A    between atoms: _138  and  _140
REMARK   58  A    between atoms: _140  and  _141
REMARK   59  A    between atoms: _140  and  _143
REMARK   60  A    between atoms: _143  and  _144
REMARK   61  A    between atoms: _147  and  _149
REMARK   62  A    between atoms: _149  and  _150
REMARK   63  A    between atoms: _149  and  _152
REMARK   64  A    between atoms: _155  and  _157
REMARK   65  A    between atoms: _157  and  _158
REMARK   66  A    between atoms: _157  and  _160
REMARK   67  A    between atoms: _160  and  _161
REMARK   68  A    between atoms: _161  and  _162
REMARK   69  A    between atoms: _162  and  _163
REMARK   70  A    between atoms: _172  and  _174
REMARK   71  A    between atoms: _174  and  _175
REMARK   72  A    between atoms: _174  and  _177
REMARK   73  A    between atoms: _177  and  _178
REMARK   74  A    between atoms: _183  and  _185
REMARK   75  A    between atoms: _185  and  _186
REMARK   76  A    between atoms: _185  and  _188
REMARK   77  A    between atoms: _188  and  _189
REMARK   78  A    between atoms: _189  and  _190
REMARK   79  A    between atoms: _193  and  _195
REMARK   80  A    between atoms: _195  and  _196
REMARK   81  A    between atoms: _195  and  _198
REMARK   82  A    between atoms: _198  and  _199
REMARK   83  A    between atoms: _199  and  _200
REMARK   84  A    between atoms: _200  and  _201
REMARK   85  A    between atoms: _201  and  _202
REMARK   86  A    between atoms: _206  and  _208
REMARK   87  A    between atoms: _208  and  _209
REMARK   88  A    between atoms: _211  and  _213
REMARK   89  A    between atoms: _213  and  _214
REMARK   90  A    between atoms: _213  and  _216
REMARK   91  A    between atoms: _219  and  _221
REMARK   92  A    between atoms: _221  and  _222
REMARK   93  A    between atoms: _221  and  _224
REMARK   94  A    between atoms: _224  and  _225
REMARK   95  A    between atoms: _227  and  _229
REMARK   96  A    between atoms: _229  and  _230
REMARK   97  A    between atoms: _229  and  _232
REMARK   98  A    between atoms: _232  and  _233
REMARK   99  A    between atoms: _235  and  _237
REMARK  100  A    between atoms: _237  and  _238
REMARK  101  A    between atoms: _237  and  _240
REMARK  102  A    between atoms: _240  and  _241
REMARK  103  A    between atoms: _247  and  _249
REMARK  104  A    between atoms: _249  and  _250
REMARK  105  A    between atoms: _249  and  _252
REMARK  106  A    between atoms: _252  and  _253
REMARK  107  A    between atoms: _256  and  _258
REMARK  108  A    between atoms: _258  and  _259
REMARK  109  A    between atoms: _258  and  _261
REMARK  110  A    between atoms: _261  and  _262
REMARK  111  A    between atoms: _265  and  _267
REMARK  112  A    between atoms: _267  and  _268
REMARK  113  A    between atoms: _267  and  _270
REMARK  114  A    between atoms: _270  and  _271
REMARK  115  A    between atoms: _271  and  _272
REMARK  116  A    between atoms: _274  and  _276
REMARK  117  A    between atoms: _276  and  _277
REMARK  118  A    between atoms: _276  and  _279
REMARK  119  A    between atoms: _279  and  _280
REMARK  120  A    between atoms: _286  and  _288
REMARK  121  A    between atoms: _288  and  _289
REMARK  122  A    between atoms: _288  and  _291
REMARK  123  A    between atoms: _293  and  _295
REMARK  124  A    between atoms: _295  and  _296
REMARK  125  A    between atoms: _299  and  _301
REMARK  126  A    between atoms: _301  and  _302
REMARK  127  A    between atoms: _304  and  _306
REMARK  128  A    between atoms: _306  and  _307
REMARK  129  A    between atoms: _306  and  _309
REMARK  130  A    between atoms: _309  and  _310
REMARK  131  A    between atoms: _310  and  _311
REMARK  132  A    between atoms: _314  and  _316
REMARK  133  A    between atoms: _316  and  _317
REMARK  134  A    between atoms: _316  and  _319
REMARK  135  A    between atoms: _319  and  _320
REMARK  136  A    between atoms: _323  and  _325
REMARK  137  A    between atoms: _325  and  _326
REMARK  138  A    between atoms: _329  and  _331
REMARK  139  A    between atoms: _331  and  _332
REMARK  140  A    between atoms: _331  and  _334
REMARK  141  A    between atoms: _334  and  _335
REMARK  142  A    between atoms: _335  and  _458
REMARK  143  A    between atoms: _336  and  _338
REMARK  144  A    between atoms: _338  and  _339
REMARK  145  A    between atoms: _338  and  _341
REMARK  146  A    between atoms: _341  and  _342
REMARK  147  A    between atoms: _342  and  _343
REMARK  148  A    between atoms: _348  and  _350
REMARK  149  A    between atoms: _350  and  _351
REMARK  150  A    between atoms: _353  and  _355
REMARK  151  A    between atoms: _355  and  _356
REMARK  152  A    between atoms: _355  and  _358
REMARK  153  A    between atoms: _358  and  _359
REMARK  154  A    between atoms: _362  and  _364
REMARK  155  A    between atoms: _364  and  _365
REMARK  156  A    between atoms: _364  and  _367
REMARK  157  A    between atoms: _367  and  _368
REMARK  158  A    between atoms: _370  and  _372
REMARK  159  A    between atoms: _372  and  _373
REMARK  160  A    between atoms: _375  and  _377
REMARK  161  A    between atoms: _377  and  _378
REMARK  162  A    between atoms: _380  and  _382
REMARK  163  A    between atoms: _382  and  _383
REMARK  164  A    between atoms: _382  and  _385
REMARK  165  A    between atoms: _385  and  _386
REMARK  166  A    between atoms: _391  and  _393
REMARK  167  A    between atoms: _393  and  _394
REMARK  168  A    between atoms: _393  and  _396
REMARK  169  A    between atoms: _396  and  _397
REMARK  170  A    between atoms: _400  and  _402
REMARK  171  A    between atoms: _402  and  _403
REMARK  172  A    between atoms: _402  and  _405
REMARK  173  A    between atoms: _408  and  _410
REMARK  174  A    between atoms: _410  and  _411
REMARK  175  A    between atoms: _410  and  _413
REMARK  176  A    between atoms: _413  and  _414
REMARK  177  A    between atoms: _416  and  _418
REMARK  178  A    between atoms: _418  and  _419
REMARK  179  A    between atoms: _418  and  _421
REMARK  180  A    between atoms: _421  and  _422
REMARK  181  A    between atoms: _432  and  _434
REMARK  182  A    between atoms: _434  and  _435
REMARK  183  A    between atoms: _437  and  _439
REMARK  184  A    between atoms: _439  and  _440
REMARK  185  A    between atoms: _439  and  _442
REMARK  186  A    between atoms: _442  and  _443
REMARK  187  A    between atoms: _443  and  _444
REMARK  188  A    between atoms: _447  and  _449
REMARK  189  A    between atoms: _449  and  _450
REMARK  190  A    between atoms: _452  and  _454
REMARK  191  A    between atoms: _454  and  _455
REMARK  192  A    between atoms: _454  and  _457
REMARK  193  A    between atoms: _457  and  _458
REMARK  194  A    between atoms: _459  and  _461
REMARK  195  A    between atoms: _461  and  _462
REMARK  196  A    between atoms: _465  and  _467
REMARK  197  A    between atoms: _467  and  _468
REMARK  198  A    between atoms: _467  and  _470
REMARK  199  A    between atoms: _470  and  _471
REMARK  200  A    between atoms: _471  and  _472
REMARK  201  A    between atoms: _472  and  _473
REMARK  202  A    between atoms: _482  and  _484
REMARK  203  A    between atoms: _484  and  _485
REMARK  204  A    between atoms: _484  and  _487
REMARK  205  A    between atoms: _487  and  _488
REMARK  206  A    between atoms: _488  and  _489
REMARK  207  A    between atoms: _489  and  _490
REMARK  208  A    between atoms: _490  and  _491
REMARK  209  A    between atoms: _495  and  _497
REMARK  210  A    between atoms: _497  and  _498
REMARK  211  A    between atoms: _497  and  _500
REMARK  212  A    between atoms: _500  and  _501
REMARK  213  A    between atoms: _506  and  _507
REMARK  214  A    between atoms: _509  and  _511
REMARK  215  A    between atoms: _511  and  _512
REMARK  216  A    between atoms: _514  and  _516
REMARK  217  A    between atoms: _516  and  _517
REMARK  218  A    between atoms: _516  and  _519
REMARK  219  A    between atoms: _519  and  _520
REMARK  220  A    between atoms: _523  and  _525
REMARK  221  A    between atoms: _525  and  _526
REMARK  222  A    between atoms: _525  and  _528
REMARK  223  A    between atoms: _528  and  _529
REMARK  224  A    between atoms: _534  and  _535
REMARK  225  A    between atoms: _537  and  _539
REMARK  226  A    between atoms: _539  and  _540
REMARK  227  A    between atoms: _539  and  _542
REMARK  228  A    between atoms: _542  and  _543
REMARK                            x       y       z     vdW  Elec       q    Type
REMARK                         _______ _______ _______ _____ _____    ______ ____
ROOT
ATOM      1  C   GLU A   2      -5.021  17.513  30.223  0.00  0.00    +0.241 C 
ATOM      2  N   LYS A   3      -5.518  18.561  30.881  0.00  0.00    -0.297 N 
ATOM      3  H   LYS A   3      -5.880  18.424  31.846  0.00  0.00    +0.150 HD
ATOM      4  O   GLU A   2      -4.466  17.604  29.135  0.00  0.00    -0.273 OA
ENDROOT
BRANCH   1   5
ATOM      5  CA  GLU A   2      -5.163  16.149  30.908  0.00  0.00    +0.149 C 
BRANCH   5   7
ATOM      6  C   HIS A   1      -3.649  16.725  32.755  0.00  0.00    +0.239 C 
ATOM      7  N   GLU A   2      -4.788  16.160  32.326  0.00  0.00    -0.297 N 
ATOM      8  H   GLU A   2      -5.424  15.717  33.019  0.00  0.00    +0.150 HD
ATOM      9  O   HIS A   1      -2.916  17.392  32.011  0.00  0.00    -0.274 OA
BRANCH   6  10
ATOM     10  CA  HIS A   1      -3.259  16.484  34.223  0.00  0.00    +0.151 C 
BRANCH  10  11
ATOM     11  N   HIS A   1      -1.826  16.806  34.321  0.00  0.00    -0.238 NA
ATOM     12  H   HIS A   1      -1.428  17.456  33.613  0.00  0.00    +0.142 HD
ENDBRANCH  10  11
BRANCH  10  13
ATOM     13  CB  HIS A   1      -4.156  17.225  35.256  0.00  0.00    +0.074 C 
BRANCH  13  14
ATOM     14  CG  HIS A   1      -4.071  18.717  35.220  0.00  0.00    +0.082 A 
ATOM     15  CD2 HIS A   1      -3.161  19.568  35.748  0.00  0.00    +0.115 A 
ATOM     16  NE2 HIS A   1      -3.578  20.844  35.453  0.00  0.00    -0.221 NA
ATOM     17  CE1 HIS A   1      -4.711  20.779  34.776  0.00  0.00    +0.199 A 
ATOM     18  ND1 HIS A   1      -5.033  19.508  34.623  0.00  0.00    -0.227 NA
ENDBRANCH  13  14
ENDBRANCH  10  13
ENDBRANCH   6  10
ENDBRANCH   5   7
BRANCH   5  19
ATOM     19  CB  GLU A   2      -6.586  15.603  30.727  0.00  0.00    +0.041 C 
BRANCH  19  20
ATOM     20  CG  GLU A   2      -7.024  15.472  29.271  0.00  0.00    +0.116 C 
BRANCH  20  21
ATOM     21  CD  GLU A   2      -8.389  14.830  29.125  0.00  0.00    +0.365 C 
ATOM     22  OE2 GLU A   2      -8.707  13.874  29.868  0.00  0.00    -0.246 OA
ATOM     23  OE1 GLU A   2      -9.161  15.281  28.261  0.00  0.00    -0.246 OA
ENDBRANCH  20  21
ENDBRANCH  19  20
ENDBRANCH   5  19
ENDBRANCH   1   5
BRANCH   2  24
ATOM     24  CA  LYS A   3      -5.570  19.897  30.287  0.00  0.00    +0.149 C 
BRANCH  24  25
ATOM     25  C   LYS A   3      -4.465  20.793  30.815  0.00  0.00    +0.241 C 
ATOM     26  N   GLY A   4      -3.477  20.206  31.483  0.00  0.00    -0.296 N 
ATOM     27  H   GLY A   4      -3.468  19.168  31.541  0.00  0.00    +0.150 HD
ATOM     28  O   LYS A   3      -4.502  21.998  30.595  0.00  0.00    -0.273 OA
BRANCH  26  29
ATOM     29  CA  GLY A   4      -2.414  20.939  32.133  0.00  0.00    +0.163 C 
BRANCH  29  30
ATOM     30  C   GLY A   4      -1.193  21.101  31.258  0.00  0.00    +0.229 C 
ATOM     31  O   GLY A   4      -1.214  20.846  30.044  0.00  0.00    -0.286 OA
ENDBRANCH  29  30
ENDBRANCH  26  29
ENDBRANCH  24  25
BRANCH  24  32
ATOM     32  CB  LYS A   3      -6.932  20.565  30.547  0.00  0.00    +0.029 C 
BRANCH  32  33
ATOM     33  CG  LYS A   3      -8.108  19.752  30.049  0.00  0.00    +0.000 C 
BRANCH  33  34
ATOM     34  CD  LYS A   3      -9.430  20.497  30.187  0.00  0.00    -0.024 C 
BRANCH  34  35
ATOM     35  CE  LYS A   3     -10.564  19.702  29.566  0.00  0.00    -0.086 C 
BRANCH  35  36
ATOM     36  NZ  LYS A   3     -10.315  19.390  28.127  0.00  0.00    +0.380 N 
ATOM     37  HZ1 LYS A   3      -9.443  18.830  28.041  0.00  0.00    -0.089 HD
ATOM     38  HZ2 LYS A   3     -11.116  18.847  27.748  0.00  0.00    -0.089 HD
ATOM     39  HZ3 LYS A   3     -10.213  20.277  27.594  0.00  0.00    -0.089 HD
ENDBRANCH  35  36
ENDBRANCH  34  35
ENDBRANCH  33  34
ENDBRANCH  32  33
ENDBRANCH  24  32
ENDBRANCH   2  24
TORSDOF 18
REMARK  Name = ../refined-set-2016/2y5f/2y5f_pocket.pdb
REMARK  228 active torsions:
REMARK  status: ('A' for Active; 'I' for Inactive)
REMARK    1  A    between atoms: _1  and  _5
REMARK    2  A    between atoms: _5  and  _6
REMARK    3  A    between atoms: _5  and  _8
REMARK    4  A    between atoms: _8  and  _9
REMARK    5  A    between atoms: _12  and  _14
REMARK    6  A    between atoms: _14  and  _15
REMARK    7  A    between atoms: _14  and  _17
REMARK    8  A    between atoms: _20  and  _22
REMARK    9  A    between atoms: _22  and  _23
REMARK   10  A    between atoms: _22  and  _25
REMARK   11  A    between atoms: _25  and  _26
REMARK   12  A    between atoms: _32  and  _34
REMARK   13  A    between atoms: _34  and  _35
REMARK   14  A    between atoms: _34  and  _37
REMARK   15  A    between atoms: _39  and  _41
REMARK   16  A    between atoms: _41  and  _42
REMARK   17  A    between atoms: _41  and  _44
REMARK   18  A    between atoms: _44  and  _45
REMARK   19  A    between atoms: _50  and  _52
REMARK   20  A    between atoms: _52  and  _53
REMARK   21  A    between atoms: _52  and  _55
REMARK   22  A    between atoms: _55  and  _56
REMARK   23  A    between atoms: _56  and  _57
REMARK   24  A    between atoms: _62  and  _64
REMARK   25  A    between atoms: _64  and  _65
REMARK   26  A    between atoms: _64  and  _67
REMARK   27  A    between atoms: _67  and  _68
REMARK   28  A    between atoms: _74  and  _76
REMARK   29  A    between atoms: _76  and  _77
REMARK   30  A    between atoms: _76  and  _79
REMARK   31  A    between atoms: _79  and  _80
REMARK   32  A    between atoms: _83  and  _85
REMARK   33  A    between atoms: _85  and  _86
REMARK   34  A    between atoms: _85  and  _88
REMARK   35  A    between atoms: _88  and  _89
REMARK   36  A    between atoms: _89  and  _90
REMARK   37  A    between atoms: _90  and  _91
REMARK   38  A    between atoms: _91  and  _92
REMARK   39  A    between atoms: _96  and  _98
REMARK   40  A    between atoms: _98  and  _99
REMARK   41  A    between atoms: _98  and  _101
REMARK   42  A    between atoms: _101  and  _102
REMARK   43  A    between atoms: _102  and  _103
REMARK   44  A    between atoms: _106  and  _108
REMARK   45  A    between atoms: _108  and  _109
REMARK   46  A    between atoms: _108  and  _111
REMARK   47  A    between atoms: _111  and  _112
REMARK   48  A    between atoms: _115  and  _117
REMARK   49  A    between atoms: _117  and  _118
REMARK   50  A    between atoms: _117  and  _120
REMARK   51  A    between atoms: _120  and  _121
REMARK   52  A    between atoms: _126  and  _127
REMARK   53  A    between atoms: _129  and  _131
REMARK   54  A    between atoms: _131  and  _132
REMARK   55  A    between atoms: _131  and  _134
REMARK   56  A    between atoms: _134  and  _135
REMARK   57  A    between atoms: _138  and  _140
REMARK   58  A    between atoms: _140  and  _141
REMARK   59  A    between atoms: _140  and  _143
REMARK   60  A    between atoms: _143  and  _144
REMARK   61  A    between atoms: _147  and  _149
REMARK   62  A    between atoms: _149  and  _150
REMARK   63  A    between atoms: _149  and  _152
REMARK   64  A    between atoms: _155  and  _157
REMARK   65  A    between atoms: _157  and  _158
REMARK   66  A    between atoms: _157  and  _160
REMARK   67  A    between atoms: _160  and  _161
REMARK   68  A    between atoms: _161  and  _162
REMARK   69  A    between atoms: _162  and  _163
REMARK   70  A    between atoms: _172  and  _174
REMARK   71  A    between atoms: _174  and  _175
REMARK   72  A    between atoms: _174  and  _177
REMARK   73  A    between atoms: _177  and  _178
REMARK   74  A    between atoms: _183  and  _185
REMARK   75  A    between atoms: _185  and  _186
REMARK   76  A    between atoms: _185  and  _188
REMARK   77  A    between atoms: _188  and  _189
REMARK   78  A    between atoms: _189  and  _190
REMARK   79  A    between atoms: _193  and  _195
REMARK   80  A    between atoms: _195  and  _196
REMARK   81  A    between atoms: _195  and  _198
REMARK   82  A    between atoms: _198  and  _199
REMARK   83  A    between atoms: _199  and  _200
REMARK   84  A    between atoms: _200  and  _201
REMARK   85  A    between atoms: _201  and  _202
REMARK   86  A    between atoms: _206  and  _208
REMARK   87  A    between atoms: _208  and  _209
REMARK   88  A    between atoms: _211  and  _213
REMARK   89  A    between atoms: _213  and  _214
REMARK   90  A    between atoms: _213  and  _216
REMARK   91  A    between atoms: _219  and  _221
REMARK   92  A    between atoms: _221  and  _222
REMARK   93  A    between atoms: _221  and  _224
REMARK   94  A    between atoms: _224  and  _225
REMARK   95  A    between atoms: _227  and  _229
REMARK   96  A    between atoms: _229  and  _230
REMARK   97  A    between atoms: _229  and  _232
REMARK   98  A    between atoms: _232  and  _233
REMARK   99  A    between atoms: _235  and  _237
REMARK  100  A    between atoms: _237  and  _238
REMARK  101  A    between atoms: _237  and  _240
REMARK  102  A    between atoms: _240  and  _241
REMARK  103  A    between atoms: _247  and  _249
REMARK  104  A    between atoms: _249  and  _250
REMARK  105  A    between atoms: _249  and  _252
REMARK  106  A    between atoms: _252  and  _253
REMARK  107  A    between atoms: _256  and  _258
REMARK  108  A    between atoms: _258  and  _259
REMARK  109  A    between atoms: _258  and  _261
REMARK  110  A    between atoms: _261  and  _262
REMARK  111  A    between atoms: _265  and  _267
REMARK  112  A    between atoms: _267  and  _268
REMARK  113  A    between atoms: _267  and  _270
REMARK  114  A    between atoms: _270  and  _271
REMARK  115  A    between atoms: _271  and  _272
REMARK  116  A    between atoms: _274  and  _276
REMARK  117  A    between atoms: _276  and  _277
REMARK  118  A    between atoms: _276  and  _279
REMARK  119  A    between atoms: _279  and  _280
REMARK  120  A    between atoms: _286  and  _288
REMARK  121  A    between atoms: _288  and  _289
REMARK  122  A    between atoms: _288  and  _291
REMARK  123  A    between atoms: _293  and  _295
REMARK  124  A    between atoms: _295  and  _296
REMARK  125  A    between atoms: _299  and  _301
REMARK  126  A    between atoms: _301  and  _302
REMARK  127  A    between atoms: _304  and  _306
REMARK  128  A    between atoms: _306  and  _307
REMARK  129  A    between atoms: _306  and  _309
REMARK  130  A    between atoms: _309  and  _310
REMARK  131  A    between atoms: _310  and  _311
REMARK  132  A    between atoms: _314  and  _316
REMARK  133  A    between atoms: _316  and  _317
REMARK  134  A    between atoms: _316  and  _319
REMARK  135  A    between atoms: _319  and  _320
REMARK  136  A    between atoms: _323  and  _325
REMARK  137  A    between atoms: _325  and  _326
REMARK  138  A    between atoms: _329  and  _331
REMARK  139  A    between atoms: _331  and  _332
REMARK  140  A    between atoms: _331  and  _334
REMARK  141  A    between atoms: _334  and  _335
REMARK  142  A    between atoms: _335  and  _458
REMARK  143  A    between atoms: _336  and  _338
REMARK  144  A    between atoms: _338  and  _339
REMARK  145  A    between atoms: _338  and  _341
REMARK  146  A    between atoms: _341  and  _342
REMARK  147  A    between atoms: _342  and  _343
REMARK  148  A    between atoms: _348  and  _350
REMARK  149  A    between atoms: _350  and  _351
REMARK  150  A    between atoms: _353  and  _355
REMARK  151  A    between atoms: _355  and  _356
REMARK  152  A    between atoms: _355  and  _358
REMARK  153  A    between atoms: _358  and  _359
REMARK  154  A    between atoms: _362  and  _364
REMARK  155  A    between atoms: _364  and  _365
REMARK  156  A    between atoms: _364  and  _367
REMARK  157  A    between atoms: _367  and  _368
REMARK  158  A    between atoms: _370  and  _372
REMARK  159  A    between atoms: _372  and  _373
REMARK  160  A    between atoms: _375  and  _377
REMARK  161  A    between atoms: _377  and  _378
REMARK  162  A    between atoms: _380  and  _382
REMARK  163  A    between atoms: _382  and  _383
REMARK  164  A    between atoms: _382  and  _385
REMARK  165  A    between atoms: _385  and  _386
REMARK  166  A    between atoms: _391  and  _393
REMARK  167  A    between atoms: _393  and  _394
REMARK  168  A    between atoms: _393  and  _396
REMARK  169  A    between atoms: _396  and  _397
REMARK  170  A    between atoms: _400  and  _402
REMARK  171  A    between atoms: _402  and  _403
REMARK  172  A    between atoms: _402  and  _405
REMARK  173  A    between atoms: _408  and  _410
REMARK  174  A    between atoms: _410  and  _411
REMARK  175  A    between atoms: _410  and  _413
REMARK  176  A    between atoms: _413  and  _414
REMARK  177  A    between atoms: _416  and  _418
REMARK  178  A    between atoms: _418  and  _419
REMARK  179  A    between atoms: _418  and  _421
REMARK  180  A    between atoms: _421  and  _422
REMARK  181  A    between atoms: _432  and  _434
REMARK  182  A    between atoms: _434  and  _435
REMARK  183  A    between atoms: _437  and  _439
REMARK  184  A    between atoms: _439  and  _440
REMARK  185  A    between atoms: _439  and  _442
REMARK  186  A    between atoms: _442  and  _443
REMARK  187  A    between atoms: _443  and  _444
REMARK  188  A    between atoms: _447  and  _449
REMARK  189  A    between atoms: _449  and  _450
REMARK  190  A    between atoms: _452  and  _454
REMARK  191  A    between atoms: _454  and  _455
REMARK  192  A    between atoms: _454  and  _457
REMARK  193  A    between atoms: _457  and  _458
REMARK  194  A    between atoms: _459  and  _461
REMARK  195  A    between atoms: _461  and  _462
REMARK  196  A    between atoms: _465  and  _467
REMARK  197  A    between atoms: _467  and  _468
REMARK  198  A    between atoms: _467  and  _470
REMARK  199  A    between atoms: _470  and  _471
REMARK  200  A    between atoms: _471  and  _472
REMARK  201  A    between atoms: _472  and  _473
REMARK  202  A    between atoms: _482  and  _484
REMARK  203  A    between atoms: _484  and  _485
REMARK  204  A    between atoms: _484  and  _487
REMARK  205  A    between atoms: _487  and  _488
REMARK  206  A    between atoms: _488  and  _489
REMARK  207  A    between atoms: _489  and  _490
REMARK  208  A    between atoms: _490  and  _491
REMARK  209  A    between atoms: _495  and  _497
REMARK  210  A    between atoms: _497  and  _498
REMARK  211  A    between atoms: _497  and  _500
REMARK  212  A    between atoms: _500  and  _501
REMARK  213  A    between atoms: _506  and  _507
REMARK  214  A    between atoms: _509  and  _511
REMARK  215  A    between atoms: _511  and  _512
REMARK  216  A    between atoms: _514  and  _516
REMARK  217  A    between atoms: _516  and  _517
REMARK  218  A    between atoms: _516  and  _519
REMARK  219  A    between atoms: _519  and  _520
REMARK  220  A    between atoms: _523  and  _525
REMARK  221  A    between atoms: _525  and  _526
REMARK  222  A    between atoms: _525  and  _528
REMARK  223  A    between atoms: _528  and  _529
REMARK  224  A    between atoms: _534  and  _535
REMARK  225  A    between atoms: _537  and  _539
REMARK  226  A    between atoms: _539  and  _540
REMARK  227  A    between atoms: _539  and  _542
REMARK  228  A    between atoms: _542  and  _543
REMARK                            x       y       z     vdW  Elec       q    Type
REMARK                         _______ _______ _______ _____ _____    ______ ____
ROOT
ATOM      1  CA  VAL A   1       0.830   1.207  36.321  0.00  0.00    +0.133 C 
ENDROOT
BRANCH   1   2
ATOM      2  CB  VAL A   1       0.772   1.817  34.882  0.00  0.00    +0.023 C 
ATOM      3  CG2 VAL A   1       0.617   3.330  34.932  0.00  0.00    +0.002 C 
ATOM      4  CG1 VAL A   1       1.985   1.472  34.025  0.00  0.00    +0.002 C 
ENDBRANCH   1   2
BRANCH   1   5
ATOM      5  N   VAL A   1       2.101   1.433  36.985  0.00  0.00    -0.239 NA
ATOM      6  H   VAL A   1       2.951   0.959  36.619  0.00  0.00    +0.142 HD
ENDBRANCH   1   5
BRANCH   1   7
ATOM      7  C   VAL A   1       0.532  -0.289  36.277  0.00  0.00    +0.224 C 
ATOM      8  O   VAL A   1       1.297  -1.069  35.705  0.00  0.00    -0.287 OA
ENDBRANCH   1   7
TORSDOF 3
REMARK  Name = ../refined-set-2016/2y5f/2y5f_pocket.pdb
REMARK  228 active torsions:
REMARK  status: ('A' for Active; 'I' for Inactive)
REMARK    1  A    between atoms: _1  and  _5
REMARK    2  A    between atoms: _5  and  _6
REMARK    3  A    between atoms: _5  and  _8
REMARK    4  A    between atoms: _8  and  _9
REMARK    5  A    between atoms: _12  and  _14
REMARK    6  A    between atoms: _14  and  _15
REMARK    7  A    between atoms: _14  and  _17
REMARK    8  A    between atoms: _20  and  _22
REMARK    9  A    between atoms: _22  and  _23
REMARK   10  A    between atoms: _22  and  _25
REMARK   11  A    between atoms: _25  and  _26
REMARK   12  A    between atoms: _32  and  _34
REMARK   13  A    between atoms: _34  and  _35
REMARK   14  A    between atoms: _34  and  _37
REMARK   15  A    between atoms: _39  and  _41
REMARK   16  A    between atoms: _41  and  _42
REMARK   17  A    between atoms: _41  and  _44
REMARK   18  A    between atoms: _44  and  _45
REMARK   19  A    between atoms: _50  and  _52
REMARK   20  A    between atoms: _52  and  _53
REMARK   21  A    between atoms: _52  and  _55
REMARK   22  A    between atoms: _55  and  _56
REMARK   23  A    between atoms: _56  and  _57
REMARK   24  A    between atoms: _62  and  _64
REMARK   25  A    between atoms: _64  and  _65
REMARK   26  A    between atoms: _64  and  _67
REMARK   27  A    between atoms: _67  and  _68
REMARK   28  A    between atoms: _74  and  _76
REMARK   29  A    between atoms: _76  and  _77
REMARK   30  A    between atoms: _76  and  _79
REMARK   31  A    between atoms: _79  and  _80
REMARK   32  A    between atoms: _83  and  _85
REMARK   33  A    between atoms: _85  and  _86
REMARK   34  A    between atoms: _85  and  _88
REMARK   35  A    between atoms: _88  and  _89
REMARK   36  A    between atoms: _89  and  _90
REMARK   37  A    between atoms: _90  and  _91
REMARK   38  A    between atoms: _91  and  _92
REMARK   39  A    between atoms: _96  and  _98
REMARK   40  A    between atoms: _98  and  _99
REMARK   41  A    between atoms: _98  and  _101
REMARK   42  A    between atoms: _101  and  _102
REMARK   43  A    between atoms: _102  and  _103
REMARK   44  A    between atoms: _106  and  _108
REMARK   45  A    between atoms: _108  and  _109
REMARK   46  A    between atoms: _108  and  _111
REMARK   47  A    between atoms: _111  and  _112
REMARK   48  A    between atoms: _115  and  _117
REMARK   49  A    between atoms: _117  and  _118
REMARK   50  A    between atoms: _117  and  _120
REMARK   51  A    between atoms: _120  and  _121
REMARK   52  A    between atoms: _126  and  _127
REMARK   53  A    between atoms: _129  and  _131
REMARK   54  A    between atoms: _131  and  _132
REMARK   55  A    between atoms: _131  and  _134
REMARK   56  A    between atoms: _134  and  _135
REMARK   57  A    between atoms: _138  and  _140
REMARK   58  A    between atoms: _140  and  _141
REMARK   59  A    between atoms: _140  and  _143
REMARK   60  A    between atoms: _143  and  _144
REMARK   61  A    between atoms: _147  and  _149
REMARK   62  A    between atoms: _149  and  _150
REMARK   63  A    between atoms: _149  and  _152
REMARK   64  A    between atoms: _155  and  _157
REMARK   65  A    between atoms: _157  and  _158
REMARK   66  A    between atoms: _157  and  _160
REMARK   67  A    between atoms: _160  and  _161
REMARK   68  A    between atoms: _161  and  _162
REMARK   69  A    between atoms: _162  and  _163
REMARK   70  A    between atoms: _172  and  _174
REMARK   71  A    between atoms: _174  and  _175
REMARK   72  A    between atoms: _174  and  _177
REMARK   73  A    between atoms: _177  and  _178
REMARK   74  A    between atoms: _183  and  _185
REMARK   75  A    between atoms: _185  and  _186
REMARK   76  A    between atoms: _185  and  _188
REMARK   77  A    between atoms: _188  and  _189
REMARK   78  A    between atoms: _189  and  _190
REMARK   79  A    between atoms: _193  and  _195
REMARK   80  A    between atoms: _195  and  _196
REMARK   81  A    between atoms: _195  and  _198
REMARK   82  A    between atoms: _198  and  _199
REMARK   83  A    between atoms: _199  and  _200
REMARK   84  A    between atoms: _200  and  _201
REMARK   85  A    between atoms: _201  and  _202
REMARK   86  A    between atoms: _206  and  _208
REMARK   87  A    between atoms: _208  and  _209
REMARK   88  A    between atoms: _211  and  _213
REMARK   89  A    between atoms: _213  and  _214
REMARK   90  A    between atoms: _213  and  _216
REMARK   91  A    between atoms: _219  and  _221
REMARK   92  A    between atoms: _221  and  _222
REMARK   93  A    between atoms: _221  and  _224
REMARK   94  A    between atoms: _224  and  _225
REMARK   95  A    between atoms: _227  and  _229
REMARK   96  A    between atoms: _229  and  _230
REMARK   97  A    between atoms: _229  and  _232
REMARK   98  A    between atoms: _232  and  _233
REMARK   99  A    between atoms: _235  and  _237
REMARK  100  A    between atoms: _237  and  _238
REMARK  101  A    between atoms: _237  and  _240
REMARK  102  A    between atoms: _240  and  _241
REMARK  103  A    between atoms: _247  and  _249
REMARK  104  A    between atoms: _249  and  _250
REMARK  105  A    between atoms: _249  and  _252
REMARK  106  A    between atoms: _252  and  _253
REMARK  107  A    between atoms: _256  and  _258
REMARK  108  A    between atoms: _258  and  _259
REMARK  109  A    between atoms: _258  and  _261
REMARK  110  A    between atoms: _261  and  _262
REMARK  111  A    between atoms: _265  and  _267
REMARK  112  A    between atoms: _267  and  _268
REMARK  113  A    between atoms: _267  and  _270
REMARK  114  A    between atoms: _270  and  _271
REMARK  115  A    between atoms: _271  and  _272
REMARK  116  A    between atoms: _274  and  _276
REMARK  117  A    between atoms: _276  and  _277
REMARK  118  A    between atoms: _276  and  _279
REMARK  119  A    between atoms: _279  and  _280
REMARK  120  A    between atoms: _286  and  _288
REMARK  121  A    between atoms: _288  and  _289
REMARK  122  A    between atoms: _288  and  _291
REMARK  123  A    between atoms: _293  and  _295
REMARK  124  A    between atoms: _295  and  _296
REMARK  125  A    between atoms: _299  and  _301
REMARK  126  A    between atoms: _301  and  _302
REMARK  127  A    between atoms: _304  and  _306
REMARK  128  A    between atoms: _306  and  _307
REMARK  129  A    between atoms: _306  and  _309
REMARK  130  A    between atoms: _309  and  _310
REMARK  131  A    between atoms: _310  and  _311
REMARK  132  A    between atoms: _314  and  _316
REMARK  133  A    between atoms: _316  and  _317
REMARK  134  A    between atoms: _316  and  _319
REMARK  135  A    between atoms: _319  and  _320
REMARK  136  A    between atoms: _323  and  _325
REMARK  137  A    between atoms: _325  and  _326
REMARK  138  A    between atoms: _329  and  _331
REMARK  139  A    between atoms: _331  and  _332
REMARK  140  A    between atoms: _331  and  _334
REMARK  141  A    between atoms: _334  and  _335
REMARK  142  A    between atoms: _335  and  _458
REMARK  143  A    between atoms: _336  and  _338
REMARK  144  A    between atoms: _338  and  _339
REMARK  145  A    between atoms: _338  and  _341
REMARK  146  A    between atoms: _341  and  _342
REMARK  147  A    between atoms: _342  and  _343
REMARK  148  A    between atoms: _348  and  _350
REMARK  149  A    between atoms: _350  and  _351
REMARK  150  A    between atoms: _353  and  _355
REMARK  151  A    between atoms: _355  and  _356
REMARK  152  A    between atoms: _355  and  _358
REMARK  153  A    between atoms: _358  and  _359
REMARK  154  A    between atoms: _362  and  _364
REMARK  155  A    between atoms: _364  and  _365
REMARK  156  A    between atoms: _364  and  _367
REMARK  157  A    between atoms: _367  and  _368
REMARK  158  A    between atoms: _370  and  _372
REMARK  159  A    between atoms: _372  and  _373
REMARK  160  A    between atoms: _375  and  _377
REMARK  161  A    between atoms: _377  and  _378
REMARK  162  A    between atoms: _380  and  _382
REMARK  163  A    between atoms: _382  and  _383
REMARK  164  A    between atoms: _382  and  _385
REMARK  165  A    between atoms: _385  and  _386
REMARK  166  A    between atoms: _391  and  _393
REMARK  167  A    between atoms: _393  and  _394
REMARK  168  A    between atoms: _393  and  _396
REMARK  169  A    between atoms: _396  and  _397
REMARK  170  A    between atoms: _400  and  _402
REMARK  171  A    between atoms: _402  and  _403
REMARK  172  A    between atoms: _402  and  _405
REMARK  173  A    between atoms: _408  and  _410
REMARK  174  A    between atoms: _410  and  _411
REMARK  175  A    between atoms: _410  and  _413
REMARK  176  A    between atoms: _413  and  _414
REMARK  177  A    between atoms: _416  and  _418
REMARK  178  A    between atoms: _418  and  _419
REMARK  179  A    between atoms: _418  and  _421
REMARK  180  A    between atoms: _421  and  _422
REMARK  181  A    between atoms: _432  and  _434
REMARK  182  A    between atoms: _434  and  _435
REMARK  183  A    between atoms: _437  and  _439
REMARK  184  A    between atoms: _439  and  _440
REMARK  185  A    between atoms: _439  and  _442
REMARK  186  A    between atoms: _442  and  _443
REMARK  187  A    between atoms: _443  and  _444
REMARK  188  A    between atoms: _447  and  _449
REMARK  189  A    between atoms: _449  and  _450
REMARK  190  A    between atoms: _452  and  _454
REMARK  191  A    between atoms: _454  and  _455
REMARK  192  A    between atoms: _454  and  _457
REMARK  193  A    between atoms: _457  and  _458
REMARK  194  A    between atoms: _459  and  _461
REMARK  195  A    between atoms: _461  and  _462
REMARK  196  A    between atoms: _465  and  _467
REMARK  197  A    between atoms: _467  and  _468
REMARK  198  A    between atoms: _467  and  _470
REMARK  199  A    between atoms: _470  and  _471
REMARK  200  A    between atoms: _471  and  _472
REMARK  201  A    between atoms: _472  and  _473
REMARK  202  A    between atoms: _482  and  _484
REMARK  203  A    between atoms: _484  and  _485
REMARK  204  A    between atoms: _484  and  _487
REMARK  205  A    between atoms: _487  and  _488
REMARK  206  A    between atoms: _488  and  _489
REMARK  207  A    between atoms: _489  and  _490
REMARK  208  A    between atoms: _490  and  _491
REMARK  209  A    between atoms: _495  and  _497
REMARK  210  A    between atoms: _497  and  _498
REMARK  211  A    between atoms: _497  and  _500
REMARK  212  A    between atoms: _500  and  _501
REMARK  213  A    between atoms: _506  and  _507
REMARK  214  A    between atoms: _509  and  _511
REMARK  215  A    between atoms: _511  and  _512
REMARK  216  A    between atoms: _514  and  _516
REMARK  217  A    between atoms: _516  and  _517
REMARK  218  A    between atoms: _516  and  _519
REMARK  219  A    between atoms: _519  and  _520
REMARK  220  A    between atoms: _523  and  _525
REMARK  221  A    between atoms: _525  and  _526
REMARK  222  A    between atoms: _525  and  _528
REMARK  223  A    between atoms: _528  and  _529
REMARK  224  A    between atoms: _534  and  _535
REMARK  225  A    between atoms: _537  and  _539
REMARK  226  A    between atoms: _539  and  _540
REMARK  227  A    between atoms: _539  and  _542
REMARK  228  A    between atoms: _542  and  _543
REMARK                            x       y       z     vdW  Elec       q    Type
REMARK                         _______ _______ _______ _____ _____    ______ ____
ROOT
ATOM      1  CA  PHE A   3     -10.967   2.605  19.263  0.00  0.00    +0.153 C 
ENDROOT
BRANCH   1   2
ATOM      2  C   PHE A   3     -10.406   1.187  19.360  0.00  0.00    +0.241 C 
ATOM      3  O   PHE A   3     -10.199   0.657  20.443  0.00  0.00    -0.273 OA
ATOM      4  N   ILE A   4     -10.100   0.587  18.222  0.00  0.00    -0.297 N 
ATOM      5  H   ILE A   4     -10.198   1.107  17.326  0.00  0.00    +0.150 HD
BRANCH   4   6
ATOM      6  CA  ILE A   4      -9.627  -0.793  18.204  0.00  0.00    +0.149 C 
BRANCH   6   7
ATOM      7  C   ILE A   4      -8.313  -0.950  19.014  0.00  0.00    +0.241 C 
ATOM      8  N   ILE A   5      -8.268  -1.979  19.857  0.00  0.00    -0.298 N 
ATOM      9  H   ILE A   5      -9.146  -2.507  20.033  0.00  0.00    +0.150 HD
ATOM     10  O   ILE A   4      -7.388  -0.141  18.890  0.00  0.00    -0.273 OA
BRANCH   8  11
ATOM     11  CA  ILE A   5      -7.050  -2.411  20.553  0.00  0.00    +0.137 C 
BRANCH  11  12
ATOM     12  C   ILE A   5      -6.527  -3.636  19.815  0.00  0.00    +0.227 C 
ATOM     13  O   ILE A   5      -7.112  -4.725  19.887  0.00  0.00    -0.286 OA
ENDBRANCH  11  12
BRANCH  11  14
ATOM     14  CB  ILE A   5      -7.323  -2.769  22.023  0.00  0.00    +0.026 C 
ATOM     15  CG2 ILE A   5      -6.010  -3.130  22.742  0.00  0.00    +0.002 C 
BRANCH  14  16
ATOM     16  CG1 ILE A   5      -8.012  -1.602  22.739  0.00  0.00    +0.002 C 
ATOM     17  CD1 ILE A   5      -7.246  -0.294  22.704  0.00  0.00    +0.000 C 
ENDBRANCH  14  16
ENDBRANCH  11  14
ENDBRANCH   8  11
ENDBRANCH   6   7
BRANCH   6  18
ATOM     18  CB  ILE A   4      -9.466  -1.342  16.759  0.00  0.00    +0.027 C 
ATOM     19  CG2 ILE A   4      -8.397  -0.571  15.962  0.00  0.00    +0.002 C 
BRANCH  18  20
ATOM     20  CG1 ILE A   4      -9.142  -2.838  16.793  0.00  0.00    +0.002 C 
ATOM     21  CD1 ILE A   4      -9.376  -3.559  15.448  0.00  0.00    +0.000 C 
ENDBRANCH  18  20
ENDBRANCH   6  18
ENDBRANCH   4   6
ENDBRANCH   1   2
BRANCH   1  23
ATOM     22  C   SER A   2     -13.057   3.331  20.321  0.00  0.00    +0.243 C 
ATOM     23  N   PHE A   3     -11.803   2.886  20.415  0.00  0.00    -0.297 N 
ATOM     24  H   PHE A   3     -11.404   2.733  21.363  0.00  0.00    +0.150 HD
ATOM     25  O   SER A   2     -13.652   3.449  19.251  0.00  0.00    -0.273 OA
BRANCH  22  26
ATOM     26  CA  SER A   2     -13.727   3.687  21.647  0.00  0.00    +0.178 C 
BRANCH  26  28
ATOM     27  C   SER A   1     -12.939   1.987  23.241  0.00  0.00    +0.241 C 
ATOM     28  N   SER A   2     -12.928   3.245  22.796  0.00  0.00    -0.295 N 
ATOM     29  H   SER A   2     -12.328   3.941  23.284  0.00  0.00    +0.150 HD
ATOM     30  O   SER A   1     -13.638   1.098  22.749  0.00  0.00    -0.274 OA
BRANCH  27  31
ATOM     31  CA  SER A   1     -11.953   1.664  24.371  0.00  0.00    +0.174 C 
BRANCH  31  32
ATOM     32  N   SER A   1     -12.512   0.775  25.382  0.00  0.00    -0.236 NA
ATOM     33  H   SER A   1     -12.552  -0.249  25.204  0.00  0.00    +0.142 HD
ENDBRANCH  31  32
BRANCH  31  34
ATOM     34  CB  SER A   1     -10.696   1.024  23.796  0.00  0.00    +0.163 C 
BRANCH  34  35
ATOM     35  OG  SER A   1     -10.102   1.907  22.857  0.00  0.00    -0.380 OA
ATOM     36  H   SER A   1      -9.864   2.755  23.308  0.00  0.00    +0.211 HD
ENDBRANCH  34  35
ENDBRANCH  31  34
ENDBRANCH  27  31
ENDBRANCH  26  28
BRANCH  26  37
ATOM     37  CB  SER A   2     -13.897   5.201  21.703  0.00  0.00    +0.166 C 
BRANCH  37  38
ATOM     38  OG  SER A   2     -14.511   5.584  22.914  0.00  0.00    -0.380 OA
ATOM     39  H   SER A   2     -13.947   5.294  23.675  0.00  0.00    +0.211 HD
ENDBRANCH  37  38
ENDBRANCH  26  37
ENDBRANCH  22  26
ENDBRANCH   1  23
BRANCH   1  40
ATOM     40  CB  PHE A   3      -9.816   3.610  19.181  0.00  0.00    +0.055 C 
BRANCH  40  41
ATOM     41  CG  PHE A   3     -10.243   5.045  19.069  0.00  0.00    -0.020 A 
ATOM     42  CD2 PHE A   3     -10.179   5.879  20.168  0.00  0.00    -0.004 A 
ATOM     43  CE2 PHE A   3     -10.543   7.199  20.084  0.00  0.00    -0.000 A 
ATOM     44  CZ  PHE A   3     -11.009   7.714  18.886  0.00  0.00    -0.000 A 
ATOM     45  CE1 PHE A   3     -11.077   6.904  17.773  0.00  0.00    -0.000 A 
ATOM     46  CD1 PHE A   3     -10.697   5.569  17.861  0.00  0.00    -0.004 A 
ENDBRANCH  40  41
ENDBRANCH   1  40
TORSDOF 20
REMARK  Name = ../refined-set-2016/2y5f/2y5f_pocket.pdb
REMARK  228 active torsions:
REMARK  status: ('A' for Active; 'I' for Inactive)
REMARK    1  A    between atoms: _1  and  _5
REMARK    2  A    between atoms: _5  and  _6
REMARK    3  A    between atoms: _5  and  _8
REMARK    4  A    between atoms: _8  and  _9
REMARK    5  A    between atoms: _12  and  _14
REMARK    6  A    between atoms: _14  and  _15
REMARK    7  A    between atoms: _14  and  _17
REMARK    8  A    between atoms: _20  and  _22
REMARK    9  A    between atoms: _22  and  _23
REMARK   10  A    between atoms: _22  and  _25
REMARK   11  A    between atoms: _25  and  _26
REMARK   12  A    between atoms: _32  and  _34
REMARK   13  A    between atoms: _34  and  _35
REMARK   14  A    between atoms: _34  and  _37
REMARK   15  A    between atoms: _39  and  _41
REMARK   16  A    between atoms: _41  and  _42
REMARK   17  A    between atoms: _41  and  _44
REMARK   18  A    between atoms: _44  and  _45
REMARK   19  A    between atoms: _50  and  _52
REMARK   20  A    between atoms: _52  and  _53
REMARK   21  A    between atoms: _52  and  _55
REMARK   22  A    between atoms: _55  and  _56
REMARK   23  A    between atoms: _56  and  _57
REMARK   24  A    between atoms: _62  and  _64
REMARK   25  A    between atoms: _64  and  _65
REMARK   26  A    between atoms: _64  and  _67
REMARK   27  A    between atoms: _67  and  _68
REMARK   28  A    between atoms: _74  and  _76
REMARK   29  A    between atoms: _76  and  _77
REMARK   30  A    between atoms: _76  and  _79
REMARK   31  A    between atoms: _79  and  _80
REMARK   32  A    between atoms: _83  and  _85
REMARK   33  A    between atoms: _85  and  _86
REMARK   34  A    between atoms: _85  and  _88
REMARK   35  A    between atoms: _88  and  _89
REMARK   36  A    between atoms: _89  and  _90
REMARK   37  A    between atoms: _90  and  _91
REMARK   38  A    between atoms: _91  and  _92
REMARK   39  A    between atoms: _96  and  _98
REMARK   40  A    between atoms: _98  and  _99
REMARK   41  A    between atoms: _98  and  _101
REMARK   42  A    between atoms: _101  and  _102
REMARK   43  A    between atoms: _102  and  _103
REMARK   44  A    between atoms: _106  and  _108
REMARK   45  A    between atoms: _108  and  _109
REMARK   46  A    between atoms: _108  and  _111
REMARK   47  A    between atoms: _111  and  _112
REMARK   48  A    between atoms: _115  and  _117
REMARK   49  A    between atoms: _117  and  _118
REMARK   50  A    between atoms: _117  and  _120
REMARK   51  A    between atoms: _120  and  _121
REMARK   52  A    between atoms: _126  and  _127
REMARK   53  A    between atoms: _129  and  _131
REMARK   54  A    between atoms: _131  and  _132
REMARK   55  A    between atoms: _131  and  _134
REMARK   56  A    between atoms: _134  and  _135
REMARK   57  A    between atoms: _138  and  _140
REMARK   58  A    between atoms: _140  and  _141
REMARK   59  A    between atoms: _140  and  _143
REMARK   60  A    between atoms: _143  and  _144
REMARK   61  A    between atoms: _147  and  _149
REMARK   62  A    between atoms: _149  and  _150
REMARK   63  A    between atoms: _149  and  _152
REMARK   64  A    between atoms: _155  and  _157
REMARK   65  A    between atoms: _157  and  _158
REMARK   66  A    between atoms: _157  and  _160
REMARK   67  A    between atoms: _160  and  _161
REMARK   68  A    between atoms: _161  and  _162
REMARK   69  A    between atoms: _162  and  _163
REMARK   70  A    between atoms: _172  and  _174
REMARK   71  A    between atoms: _174  and  _175
REMARK   72  A    between atoms: _174  and  _177
REMARK   73  A    between atoms: _177  and  _178
REMARK   74  A    between atoms: _183  and  _185
REMARK   75  A    between atoms: _185  and  _186
REMARK   76  A    between atoms: _185  and  _188
REMARK   77  A    between atoms: _188  and  _189
REMARK   78  A    between atoms: _189  and  _190
REMARK   79  A    between atoms: _193  and  _195
REMARK   80  A    between atoms: _195  and  _196
REMARK   81  A    between atoms: _195  and  _198
REMARK   82  A    between atoms: _198  and  _199
REMARK   83  A    between atoms: _199  and  _200
REMARK   84  A    between atoms: _200  and  _201
REMARK   85  A    between atoms: _201  and  _202
REMARK   86  A    between atoms: _206  and  _208
REMARK   87  A    between atoms: _208  and  _209
REMARK   88  A    between atoms: _211  and  _213
REMARK   89  A    between atoms: _213  and  _214
REMARK   90  A    between atoms: _213  and  _216
REMARK   91  A    between atoms: _219  and  _221
REMARK   92  A    between atoms: _221  and  _222
REMARK   93  A    between atoms: _221  and  _224
REMARK   94  A    between atoms: _224  and  _225
REMARK   95  A    between atoms: _227  and  _229
REMARK   96  A    between atoms: _229  and  _230
REMARK   97  A    between atoms: _229  and  _232
REMARK   98  A    between atoms: _232  and  _233
REMARK   99  A    between atoms: _235  and  _237
REMARK  100  A    between atoms: _237  and  _238
REMARK  101  A    between atoms: _237  and  _240
REMARK  102  A    between atoms: _240  and  _241
REMARK  103  A    between atoms: _247  and  _249
REMARK  104  A    between atoms: _249  and  _250
REMARK  105  A    between atoms: _249  and  _252
REMARK  106  A    between atoms: _252  and  _253
REMARK  107  A    between atoms: _256  and  _258
REMARK  108  A    between atoms: _258  and  _259
REMARK  109  A    between atoms: _258  and  _261
REMARK  110  A    between atoms: _261  and  _262
REMARK  111  A    between atoms: _265  and  _267
REMARK  112  A    between atoms: _267  and  _268
REMARK  113  A    between atoms: _267  and  _270
REMARK  114  A    between atoms: _270  and  _271
REMARK  115  A    between atoms: _271  and  _272
REMARK  116  A    between atoms: _274  and  _276
REMARK  117  A    between atoms: _276  and  _277
REMARK  118  A    between atoms: _276  and  _279
REMARK  119  A    between atoms: _279  and  _280
REMARK  120  A    between atoms: _286  and  _288
REMARK  121  A    between atoms: _288  and  _289
REMARK  122  A    between atoms: _288  and  _291
REMARK  123  A    between atoms: _293  and  _295
REMARK  124  A    between atoms: _295  and  _296
REMARK  125  A    between atoms: _299  and  _301
REMARK  126  A    between atoms: _301  and  _302
REMARK  127  A    between atoms: _304  and  _306
REMARK  128  A    between atoms: _306  and  _307
REMARK  129  A    between atoms: _306  and  _309
REMARK  130  A    between atoms: _309  and  _310
REMARK  131  A    between atoms: _310  and  _311
REMARK  132  A    between atoms: _314  and  _316
REMARK  133  A    between atoms: _316  and  _317
REMARK  134  A    between atoms: _316  and  _319
REMARK  135  A    between atoms: _319  and  _320
REMARK  136  A    between atoms: _323  and  _325
REMARK  137  A    between atoms: _325  and  _326
REMARK  138  A    between atoms: _329  and  _331
REMARK  139  A    between atoms: _331  and  _332
REMARK  140  A    between atoms: _331  and  _334
REMARK  141  A    between atoms: _334  and  _335
REMARK  142  A    between atoms: _335  and  _458
REMARK  143  A    between atoms: _336  and  _338
REMARK  144  A    between atoms: _338  and  _339
REMARK  145  A    between atoms: _338  and  _341
REMARK  146  A    between atoms: _341  and  _342
REMARK  147  A    between atoms: _342  and  _343
REMARK  148  A    between atoms: _348  and  _350
REMARK  149  A    between atoms: _350  and  _351
REMARK  150  A    between atoms: _353  and  _355
REMARK  151  A    between atoms: _355  and  _356
REMARK  152  A    between atoms: _355  and  _358
REMARK  153  A    between atoms: _358  and  _359
REMARK  154  A    between atoms: _362  and  _364
REMARK  155  A    between atoms: _364  and  _365
REMARK  156  A    between atoms: _364  and  _367
REMARK  157  A    between atoms: _367  and  _368
REMARK  158  A    between atoms: _370  and  _372
REMARK  159  A    between atoms: _372  and  _373
REMARK  160  A    between atoms: _375  and  _377
REMARK  161  A    between atoms: _377  and  _378
REMARK  162  A    between atoms: _380  and  _382
REMARK  163  A    between atoms: _382  and  _383
REMARK  164  A    between atoms: _382  and  _385
REMARK  165  A    between atoms: _385  and  _386
REMARK  166  A    between atoms: _391  and  _393
REMARK  167  A    between atoms: _393  and  _394
REMARK  168  A    between atoms: _393  and  _396
REMARK  169  A    between atoms: _396  and  _397
REMARK  170  A    between atoms: _400  and  _402
REMARK  171  A    between atoms: _402  and  _403
REMARK  172  A    between atoms: _402  and  _405
REMARK  173  A    between atoms: _408  and  _410
REMARK  174  A    between atoms: _410  and  _411
REMARK  175  A    between atoms: _410  and  _413
REMARK  176  A    between atoms: _413  and  _414
REMARK  177  A    between atoms: _416  and  _418
REMARK  178  A    between atoms: _418  and  _419
REMARK  179  A    between atoms: _418  and  _421
REMARK  180  A    between atoms: _421  and  _422
REMARK  181  A    between atoms: _432  and  _434
REMARK  182  A    between atoms: _434  and  _435
REMARK  183  A    between atoms: _437  and  _439
REMARK  184  A    between atoms: _439  and  _440
REMARK  185  A    between atoms: _439  and  _442
REMARK  186  A    between atoms: _442  and  _443
REMARK  187  A    between atoms: _443  and  _444
REMARK  188  A    between atoms: _447  and  _449
REMARK  189  A    between atoms: _449  and  _450
REMARK  190  A    between atoms: _452  and  _454
REMARK  191  A    between atoms: _454  and  _455
REMARK  192  A    between atoms: _454  and  _457
REMARK  193  A    between atoms: _457  and  _458
REMARK  194  A    between atoms: _459  and  _461
REMARK  195  A    between atoms: _461  and  _462
REMARK  196  A    between atoms: _465  and  _467
REMARK  197  A    between atoms: _467  and  _468
REMARK  198  A    between atoms: _467  and  _470
REMARK  199  A    between atoms: _470  and  _471
REMARK  200  A    between atoms: _471  and  _472
REMARK  201  A    between atoms: _472  and  _473
REMARK  202  A    between atoms: _482  and  _484
REMARK  203  A    between atoms: _484  and  _485
REMARK  204  A    between atoms: _484  and  _487
REMARK  205  A    between atoms: _487  and  _488
REMARK  206  A    between atoms: _488  and  _489
REMARK  207  A    between atoms: _489  and  _490
REMARK  208  A    between atoms: _490  and  _491
REMARK  209  A    between atoms: _495  and  _497
REMARK  210  A    between atoms: _497  and  _498
REMARK  211  A    between atoms: _497  and  _500
REMARK  212  A    between atoms: _500  and  _501
REMARK  213  A    between atoms: _506  and  _507
REMARK  214  A    between atoms: _509  and  _511
REMARK  215  A    between atoms: _511  and  _512
REMARK  216  A    between atoms: _514  and  _516
REMARK  217  A    between atoms: _516  and  _517
REMARK  218  A    between atoms: _516  and  _519
REMARK  219  A    between atoms: _519  and  _520
REMARK  220  A    between atoms: _523  and  _525
REMARK  221  A    between atoms: _525  and  _526
REMARK  222  A    between atoms: _525  and  _528
REMARK  223  A    between atoms: _528  and  _529
REMARK  224  A    between atoms: _534  and  _535
REMARK  225  A    between atoms: _537  and  _539
REMARK  226  A    between atoms: _539  and  _540
REMARK  227  A    between atoms: _539  and  _542
REMARK  228  A    between atoms: _542  and  _543
REMARK                            x       y       z     vdW  Elec       q    Type
REMARK                         _______ _______ _______ _____ _____    ______ ____
ROOT
ATOM      1  C   PHE A   2      -2.174  -2.246  26.452  0.00  0.00    +0.241 C 
ATOM      2  N   CYS A   3      -3.140  -2.469  27.360  0.00  0.00    -0.296 N 
ATOM      3  H   CYS A   3      -3.599  -3.402  27.367  0.00  0.00    +0.150 HD
ATOM      4  O   PHE A   2      -1.743  -1.130  26.205  0.00  0.00    -0.273 OA
ENDROOT
BRANCH   2   5
ATOM      5  CA  CYS A   3      -3.590  -1.460  28.354  0.00  0.00    +0.160 C 
BRANCH   5   6
ATOM      6  C   CYS A   3      -2.807  -1.570  29.655  0.00  0.00    +0.242 C 
ATOM      7  N   ALA A   4      -2.619  -0.423  30.301  0.00  0.00    -0.297 N 
ATOM      8  H   ALA A   4      -2.864   0.466  29.820  0.00  0.00    +0.150 HD
ATOM      9  O   CYS A   3      -2.421  -2.664  30.088  0.00  0.00    -0.273 OA
BRANCH   7  10
ATOM     10  CA  ALA A   4      -2.083  -0.360  31.657  0.00  0.00    +0.149 C 
ATOM     11  CB  ALA A   4      -0.543  -0.368  31.680  0.00  0.00    +0.031 C 
BRANCH  10  12
ATOM     12  C   ALA A   4      -2.617   0.891  32.317  0.00  0.00    +0.241 C 
ATOM     13  N   GLY A   5      -2.710   0.839  33.635  0.00  0.00    -0.296 N 
ATOM     14  H   GLY A   5      -2.432  -0.038  34.119  0.00  0.00    +0.150 HD
ATOM     15  O   ALA A   4      -2.917   1.889  31.661  0.00  0.00    -0.273 OA
BRANCH  13  16
ATOM     16  CA  GLY A   5      -3.179   1.943  34.427  0.00  0.00    +0.163 C 
BRANCH  16  17
ATOM     17  C   GLY A   5      -4.361   1.559  35.292  0.00  0.00    +0.229 C 
ATOM     18  O   GLY A   5      -4.441   0.434  35.772  0.00  0.00    -0.286 OA
ENDBRANCH  16  17
ENDBRANCH  13  16
ENDBRANCH  10  12
ENDBRANCH   7  10
ENDBRANCH   5   6
BRANCH   5  19
ATOM     19  CB  CYS A   3      -5.086  -1.613  28.746  0.00  0.00    +0.098 C 
ATOM     20  SG  CYS A   3      -6.366  -0.882  27.682  0.00  0.00    -0.080 S 
ENDBRANCH   5  19
ENDBRANCH   2   5
BRANCH   1  21
ATOM     21  CA  PHE A   2      -1.769  -3.426  25.616  0.00  0.00    +0.153 C 
BRANCH  21  23
ATOM     22  C   MET A   1      -1.451  -3.646  23.211  0.00  0.00    +0.238 C 
ATOM     23  N   PHE A   2      -1.212  -2.980  24.346  0.00  0.00    -0.297 N 
ATOM     24  H   PHE A   2      -0.617  -2.127  24.321  0.00  0.00    +0.150 HD
ATOM     25  O   MET A   1      -1.942  -4.781  23.162  0.00  0.00    -0.274 OA
BRANCH  22  26
ATOM     26  CA  MET A   1      -1.124  -2.901  21.941  0.00  0.00    +0.146 C 
BRANCH  26  27
ATOM     27  N   MET A   1      -0.852  -3.871  20.888  0.00  0.00    -0.238 NA
ATOM     28  H   MET A   1      -1.529  -4.649  20.756  0.00  0.00    +0.142 HD
ENDBRANCH  26  27
BRANCH  26  29
ATOM     29  CB  MET A   1      -2.345  -2.077  21.554  0.00  0.00    +0.038 C 
BRANCH  29  30
ATOM     30  CG  MET A   1      -2.188  -1.252  20.316  0.00  0.00    +0.060 C 
BRANCH  30  31
ATOM     31  SD  MET A   1      -3.749  -0.453  19.848  0.00  0.00    -0.139 S 
ATOM     32  CE  MET A   1      -3.339   0.027  18.165  0.00  0.00    +0.069 C 
ENDBRANCH  30  31
ENDBRANCH  29  30
ENDBRANCH  26  29
ENDBRANCH  22  26
ENDBRANCH  21  23
BRANCH  21  33
ATOM     33  CB  PHE A   2      -0.814  -4.367  26.387  0.00  0.00    +0.055 C 
BRANCH  33  34
ATOM     34  CG  PHE A   2       0.400  -3.691  26.963  0.00  0.00    -0.020 A 
ATOM     35  CD2 PHE A   2       0.402  -3.204  28.263  0.00  0.00    -0.004 A 
ATOM     36  CE2 PHE A   2       1.538  -2.617  28.768  0.00  0.00    -0.000 A 
ATOM     37  CZ  PHE A   2       2.697  -2.536  28.016  0.00  0.00    -0.000 A 
ATOM     38  CE1 PHE A   2       2.706  -3.022  26.731  0.00  0.00    -0.000 A 
ATOM     39  CD1 PHE A   2       1.552  -3.595  26.225  0.00  0.00    -0.004 A 
ENDBRANCH  33  34
ENDBRANCH  21  33
ENDBRANCH   1  21
TORSDOF 16
REMARK  Name = ../refined-set-2016/2y5f/2y5f_pocket.pdb
REMARK  228 active torsions:
REMARK  status: ('A' for Active; 'I' for Inactive)
REMARK    1  A    between atoms: _1  and  _5
REMARK    2  A    between atoms: _5  and  _6
REMARK    3  A    between atoms: _5  and  _8
REMARK    4  A    between atoms: _8  and  _9
REMARK    5  A    between atoms: _12  and  _14
REMARK    6  A    between atoms: _14  and  _15
REMARK    7  A    between atoms: _14  and  _17
REMARK    8  A    between atoms: _20  and  _22
REMARK    9  A    between atoms: _22  and  _23
REMARK   10  A    between atoms: _22  and  _25
REMARK   11  A    between atoms: _25  and  _26
REMARK   12  A    between atoms: _32  and  _34
REMARK   13  A    between atoms: _34  and  _35
REMARK   14  A    between atoms: _34  and  _37
REMARK   15  A    between atoms: _39  and  _41
REMARK   16  A    between atoms: _41  and  _42
REMARK   17  A    between atoms: _41  and  _44
REMARK   18  A    between atoms: _44  and  _45
REMARK   19  A    between atoms: _50  and  _52
REMARK   20  A    between atoms: _52  and  _53
REMARK   21  A    between atoms: _52  and  _55
REMARK   22  A    between atoms: _55  and  _56
REMARK   23  A    between atoms: _56  and  _57
REMARK   24  A    between atoms: _62  and  _64
REMARK   25  A    between atoms: _64  and  _65
REMARK   26  A    between atoms: _64  and  _67
REMARK   27  A    between atoms: _67  and  _68
REMARK   28  A    between atoms: _74  and  _76
REMARK   29  A    between atoms: _76  and  _77
REMARK   30  A    between atoms: _76  and  _79
REMARK   31  A    between atoms: _79  and  _80
REMARK   32  A    between atoms: _83  and  _85
REMARK   33  A    between atoms: _85  and  _86
REMARK   34  A    between atoms: _85  and  _88
REMARK   35  A    between atoms: _88  and  _89
REMARK   36  A    between atoms: _89  and  _90
REMARK   37  A    between atoms: _90  and  _91
REMARK   38  A    between atoms: _91  and  _92
REMARK   39  A    between atoms: _96  and  _98
REMARK   40  A    between atoms: _98  and  _99
REMARK   41  A    between atoms: _98  and  _101
REMARK   42  A    between atoms: _101  and  _102
REMARK   43  A    between atoms: _102  and  _103
REMARK   44  A    between atoms: _106  and  _108
REMARK   45  A    between atoms: _108  and  _109
REMARK   46  A    between atoms: _108  and  _111
REMARK   47  A    between atoms: _111  and  _112
REMARK   48  A    between atoms: _115  and  _117
REMARK   49  A    between atoms: _117  and  _118
REMARK   50  A    between atoms: _117  and  _120
REMARK   51  A    between atoms: _120  and  _121
REMARK   52  A    between atoms: _126  and  _127
REMARK   53  A    between atoms: _129  and  _131
REMARK   54  A    between atoms: _131  and  _132
REMARK   55  A    between atoms: _131  and  _134
REMARK   56  A    between atoms: _134  and  _135
REMARK   57  A    between atoms: _138  and  _140
REMARK   58  A    between atoms: _140  and  _141
REMARK   59  A    between atoms: _140  and  _143
REMARK   60  A    between atoms: _143  and  _144
REMARK   61  A    between atoms: _147  and  _149
REMARK   62  A    between atoms: _149  and  _150
REMARK   63  A    between atoms: _149  and  _152
REMARK   64  A    between atoms: _155  and  _157
REMARK   65  A    between atoms: _157  and  _158
REMARK   66  A    between atoms: _157  and  _160
REMARK   67  A    between atoms: _160  and  _161
REMARK   68  A    between atoms: _161  and  _162
REMARK   69  A    between atoms: _162  and  _163
REMARK   70  A    between atoms: _172  and  _174
REMARK   71  A    between atoms: _174  and  _175
REMARK   72  A    between atoms: _174  and  _177
REMARK   73  A    between atoms: _177  and  _178
REMARK   74  A    between atoms: _183  and  _185
REMARK   75  A    between atoms: _185  and  _186
REMARK   76  A    between atoms: _185  and  _188
REMARK   77  A    between atoms: _188  and  _189
REMARK   78  A    between atoms: _189  and  _190
REMARK   79  A    between atoms: _193  and  _195
REMARK   80  A    between atoms: _195  and  _196
REMARK   81  A    between atoms: _195  and  _198
REMARK   82  A    between atoms: _198  and  _199
REMARK   83  A    between atoms: _199  and  _200
REMARK   84  A    between atoms: _200  and  _201
REMARK   85  A    between atoms: _201  and  _202
REMARK   86  A    between atoms: _206  and  _208
REMARK   87  A    between atoms: _208  and  _209
REMARK   88  A    between atoms: _211  and  _213
REMARK   89  A    between atoms: _213  and  _214
REMARK   90  A    between atoms: _213  and  _216
REMARK   91  A    between atoms: _219  and  _221
REMARK   92  A    between atoms: _221  and  _222
REMARK   93  A    between atoms: _221  and  _224
REMARK   94  A    between atoms: _224  and  _225
REMARK   95  A    between atoms: _227  and  _229
REMARK   96  A    between atoms: _229  and  _230
REMARK   97  A    between atoms: _229  and  _232
REMARK   98  A    between atoms: _232  and  _233
REMARK   99  A    between atoms: _235  and  _237
REMARK  100  A    between atoms: _237  and  _238
REMARK  101  A    between atoms: _237  and  _240
REMARK  102  A    between atoms: _240  and  _241
REMARK  103  A    between atoms: _247  and  _249
REMARK  104  A    between atoms: _249  and  _250
REMARK  105  A    between atoms: _249  and  _252
REMARK  106  A    between atoms: _252  and  _253
REMARK  107  A    between atoms: _256  and  _258
REMARK  108  A    between atoms: _258  and  _259
REMARK  109  A    between atoms: _258  and  _261
REMARK  110  A    between atoms: _261  and  _262
REMARK  111  A    between atoms: _265  and  _267
REMARK  112  A    between atoms: _267  and  _268
REMARK  113  A    between atoms: _267  and  _270
REMARK  114  A    between atoms: _270  and  _271
REMARK  115  A    between atoms: _271  and  _272
REMARK  116  A    between atoms: _274  and  _276
REMARK  117  A    between atoms: _276  and  _277
REMARK  118  A    between atoms: _276  and  _279
REMARK  119  A    between atoms: _279  and  _280
REMARK  120  A    between atoms: _286  and  _288
REMARK  121  A    between atoms: _288  and  _289
REMARK  122  A    between atoms: _288  and  _291
REMARK  123  A    between atoms: _293  and  _295
REMARK  124  A    between atoms: _295  and  _296
REMARK  125  A    between atoms: _299  and  _301
REMARK  126  A    between atoms: _301  and  _302
REMARK  127  A    between atoms: _304  and  _306
REMARK  128  A    between atoms: _306  and  _307
REMARK  129  A    between atoms: _306  and  _309
REMARK  130  A    between atoms: _309  and  _310
REMARK  131  A    between atoms: _310  and  _311
REMARK  132  A    between atoms: _314  and  _316
REMARK  133  A    between atoms: _316  and  _317
REMARK  134  A    between atoms: _316  and  _319
REMARK  135  A    between atoms: _319  and  _320
REMARK  136  A    between atoms: _323  and  _325
REMARK  137  A    between atoms: _325  and  _326
REMARK  138  A    between atoms: _329  and  _331
REMARK  139  A    between atoms: _331  and  _332
REMARK  140  A    between atoms: _331  and  _334
REMARK  141  A    between atoms: _334  and  _335
REMARK  142  A    between atoms: _335  and  _458
REMARK  143  A    between atoms: _336  and  _338
REMARK  144  A    between atoms: _338  and  _339
REMARK  145  A    between atoms: _338  and  _341
REMARK  146  A    between atoms: _341  and  _342
REMARK  147  A    between atoms: _342  and  _343
REMARK  148  A    between atoms: _348  and  _350
REMARK  149  A    between atoms: _350  and  _351
REMARK  150  A    between atoms: _353  and  _355
REMARK  151  A    between atoms: _355  and  _356
REMARK  152  A    between atoms: _355  and  _358
REMARK  153  A    between atoms: _358  and  _359
REMARK  154  A    between atoms: _362  and  _364
REMARK  155  A    between atoms: _364  and  _365
REMARK  156  A    between atoms: _364  and  _367
REMARK  157  A    between atoms: _367  and  _368
REMARK  158  A    between atoms: _370  and  _372
REMARK  159  A    between atoms: _372  and  _373
REMARK  160  A    between atoms: _375  and  _377
REMARK  161  A    between atoms: _377  and  _378
REMARK  162  A    between atoms: _380  and  _382
REMARK  163  A    between atoms: _382  and  _383
REMARK  164  A    between atoms: _382  and  _385
REMARK  165  A    between atoms: _385  and  _386
REMARK  166  A    between atoms: _391  and  _393
REMARK  167  A    between atoms: _393  and  _394
REMARK  168  A    between atoms: _393  and  _396
REMARK  169  A    between atoms: _396  and  _397
REMARK  170  A    between atoms: _400  and  _402
REMARK  171  A    between atoms: _402  and  _403
REMARK  172  A    between atoms: _402  and  _405
REMARK  173  A    between atoms: _408  and  _410
REMARK  174  A    between atoms: _410  and  _411
REMARK  175  A    between atoms: _410  and  _413
REMARK  176  A    between atoms: _413  and  _414
REMARK  177  A    between atoms: _416  and  _418
REMARK  178  A    between atoms: _418  and  _419
REMARK  179  A    between atoms: _418  and  _421
REMARK  180  A    between atoms: _421  and  _422
REMARK  181  A    between atoms: _432  and  _434
REMARK  182  A    between atoms: _434  and  _435
REMARK  183  A    between atoms: _437  and  _439
REMARK  184  A    between atoms: _439  and  _440
REMARK  185  A    between atoms: _439  and  _442
REMARK  186  A    between atoms: _442  and  _443
REMARK  187  A    between atoms: _443  and  _444
REMARK  188  A    between atoms: _447  and  _449
REMARK  189  A    between atoms: _449  and  _450
REMARK  190  A    between atoms: _452  and  _454
REMARK  191  A    between atoms: _454  and  _455
REMARK  192  A    between atoms: _454  and  _457
REMARK  193  A    between atoms: _457  and  _458
REMARK  194  A    between atoms: _459  and  _461
REMARK  195  A    between atoms: _461  and  _462
REMARK  196  A    between atoms: _465  and  _467
REMARK  197  A    between atoms: _467  and  _468
REMARK  198  A    between atoms: _467  and  _470
REMARK  199  A    between atoms: _470  and  _471
REMARK  200  A    between atoms: _471  and  _472
REMARK  201  A    between atoms: _472  and  _473
REMARK  202  A    between atoms: _482  and  _484
REMARK  203  A    between atoms: _484  and  _485
REMARK  204  A    between atoms: _484  and  _487
REMARK  205  A    between atoms: _487  and  _488
REMARK  206  A    between atoms: _488  and  _489
REMARK  207  A    between atoms: _489  and  _490
REMARK  208  A    between atoms: _490  and  _491
REMARK  209  A    between atoms: _495  and  _497
REMARK  210  A    between atoms: _497  and  _498
REMARK  211  A    between atoms: _497  and  _500
REMARK  212  A    between atoms: _500  and  _501
REMARK  213  A    between atoms: _506  and  _507
REMARK  214  A    between atoms: _509  and  _511
REMARK  215  A    between atoms: _511  and  _512
REMARK  216  A    between atoms: _514  and  _516
REMARK  217  A    between atoms: _516  and  _517
REMARK  218  A    between atoms: _516  and  _519
REMARK  219  A    between atoms: _519  and  _520
REMARK  220  A    between atoms: _523  and  _525
REMARK  221  A    between atoms: _525  and  _526
REMARK  222  A    between atoms: _525  and  _528
REMARK  223  A    between atoms: _528  and  _529
REMARK  224  A    between atoms: _534  and  _535
REMARK  225  A    between atoms: _537  and  _539
REMARK  226  A    between atoms: _539  and  _540
REMARK  227  A    between atoms: _539  and  _542
REMARK  228  A    between atoms: _542  and  _543
REMARK                            x       y       z     vdW  Elec       q    Type
REMARK                         _______ _______ _______ _____ _____    ______ ____
ROOT
ATOM      1  CA  SER A   8      -5.547  11.236  30.475  0.00  0.00    +0.160 C 
ENDROOT
BRANCH   1   2
ATOM      2  N   SER A   8      -6.543  11.759  29.548  0.00  0.00    -0.296 N 
ATOM      3  H   SER A   8      -7.225  12.467  29.887  0.00  0.00    +0.150 HD
ATOM      4  C   ASP A   7      -6.607  11.357  28.278  0.00  0.00    +0.243 C 
ATOM      5  O   ASP A   7      -5.804  10.545  27.764  0.00  0.00    -0.273 OA
BRANCH   4   6
ATOM      6  CA  ASP A   7      -7.758  11.920  27.464  0.00  0.00    +0.176 C 
BRANCH   6   7
ATOM      7  N   ASP A   7      -8.050  11.033  26.352  0.00  0.00    -0.295 N 
ATOM      8  C   GLY A   6      -8.614   9.847  26.538  0.00  0.00    +0.241 C 
ATOM      9  O   GLY A   6      -9.119   9.524  27.614  0.00  0.00    -0.273 OA
ATOM     10  H   ASP A   7      -7.811  11.335  25.386  0.00  0.00    +0.150 HD
BRANCH   8  11
ATOM     11  CA  GLY A   6      -8.603   8.898  25.349  0.00  0.00    +0.149 C 
BRANCH  11  12
ATOM     12  N   GLY A   6      -7.455   8.027  25.549  0.00  0.00    -0.297 N 
ATOM     13  H   GLY A   6      -7.573   7.168  26.124  0.00  0.00    +0.150 HD
ATOM     14  C   GLN A   5      -6.266   8.286  25.027  0.00  0.00    +0.243 C 
ATOM     15  O   GLN A   5      -6.048   9.211  24.251  0.00  0.00    -0.273 OA
BRANCH  14  16
ATOM     16  CA  GLN A   5      -5.150   7.350  25.441  0.00  0.00    +0.176 C 
BRANCH  16  17
ATOM     17  N   GLN A   5      -4.034   7.536  24.533  0.00  0.00    -0.295 N 
ATOM     18  C   TRP A   4      -3.098   6.608  24.366  0.00  0.00    +0.241 C 
ATOM     19  O   TRP A   4      -2.992   5.622  25.096  0.00  0.00    -0.273 OA
ATOM     20  H   GLN A   5      -3.964   8.424  23.996  0.00  0.00    +0.150 HD
BRANCH  18  21
ATOM     21  CA  TRP A   4      -2.124   6.847  23.233  0.00  0.00    +0.153 C 
BRANCH  21  22
ATOM     22  N   TRP A   4      -0.977   5.944  23.302  0.00  0.00    -0.297 N 
ATOM     23  H   TRP A   4      -1.036   5.080  23.878  0.00  0.00    +0.150 HD
ATOM     24  C   SER A   3       0.141   6.215  22.636  0.00  0.00    +0.243 C 
ATOM     25  O   SER A   3       0.268   7.229  21.964  0.00  0.00    -0.273 OA
BRANCH  24  26
ATOM     26  CA  SER A   3       1.284   5.216  22.682  0.00  0.00    +0.178 C 
BRANCH  26  27
ATOM     27  N   SER A   3       1.835   5.029  24.005  0.00  0.00    -0.295 N 
ATOM     28  H   SER A   3       1.236   4.631  24.756  0.00  0.00    +0.150 HD
ATOM     29  C   VAL A   2       3.100   5.359  24.280  0.00  0.00    +0.241 C 
ATOM     30  O   VAL A   2       3.814   5.983  23.495  0.00  0.00    -0.273 OA
BRANCH  29  31
ATOM     31  CA  VAL A   2       3.678   4.971  25.645  0.00  0.00    +0.148 C 
BRANCH  31  32
ATOM     32  N   VAL A   2       4.879   4.176  25.420  0.00  0.00    -0.297 N 
ATOM     33  H   VAL A   2       5.793   4.499  25.797  0.00  0.00    +0.150 HD
ATOM     34  C   ILE A   1       4.808   3.038  24.733  0.00  0.00    +0.238 C 
ATOM     35  O   ILE A   1       3.760   2.593  24.297  0.00  0.00    -0.274 OA
BRANCH  34  36
ATOM     36  CA  ILE A   1       6.104   2.280  24.458  0.00  0.00    +0.145 C 
BRANCH  36  37
ATOM     37  CB  ILE A   1       6.432   2.365  22.949  0.00  0.00    +0.025 C 
ATOM     38  CG2 ILE A   1       6.615   3.824  22.510  0.00  0.00    +0.002 C 
BRANCH  37  39
ATOM     39  CG1 ILE A   1       7.671   1.520  22.626  0.00  0.00    +0.002 C 
ATOM     40  CD1 ILE A   1       7.831   1.210  21.134  0.00  0.00    +0.000 C 
ENDBRANCH  37  39
ENDBRANCH  36  37
BRANCH  36  41
ATOM     41  N   ILE A   1       5.859   0.914  24.880  0.00  0.00    -0.238 NA
ATOM     42  H   ILE A   1       5.069   0.395  24.447  0.00  0.00    +0.142 HD
ENDBRANCH  36  41
ENDBRANCH  34  36
ENDBRANCH  31  32
BRANCH  31  43
ATOM     43  CB  VAL A   2       4.022   6.246  26.461  0.00  0.00    +0.027 C 
ATOM     44  CG2 VAL A   2       4.719   5.898  27.757  0.00  0.00    +0.002 C 
ATOM     45  CG1 VAL A   2       2.727   7.032  26.742  0.00  0.00    +0.002 C 
ENDBRANCH  31  43
ENDBRANCH  29  31
ENDBRANCH  26  27
BRANCH  26  46
ATOM     46  CB  SER A   3       0.924   3.865  22.057  0.00  0.00    +0.166 C 
BRANCH  46  47
ATOM     47  OG  SER A   3       0.459   4.005  20.725  0.00  0.00    -0.380 OA
ATOM     48  H   SER A   3       1.165   4.424  20.172  0.00  0.00    +0.211 HD
ENDBRANCH  46  47
ENDBRANCH  26  46
ENDBRANCH  24  26
ENDBRANCH  21  22
BRANCH  21  49
ATOM     49  CB  TRP A   4      -2.840   6.760  21.871  0.00  0.00    +0.057 C 
BRANCH  49  50
ATOM     50  CG  TRP A   4      -3.389   5.434  21.496  0.00  0.00    -0.002 A 
ATOM     51  CD2 TRP A   4      -4.737   4.975  21.686  0.00  0.00    +0.013 A 
ATOM     52  CE3 TRP A   4      -5.877   5.542  22.238  0.00  0.00    +0.001 A 
ATOM     53  CZ3 TRP A   4      -7.034   4.806  22.257  0.00  0.00    +0.000 A 
ATOM     54  CH2 TRP A   4      -7.067   3.480  21.773  0.00  0.00    +0.001 A 
ATOM     55  CZ2 TRP A   4      -5.971   2.904  21.200  0.00  0.00    +0.017 A 
ATOM     56  CE2 TRP A   4      -4.798   3.656  21.185  0.00  0.00    +0.056 A 
ATOM     57  NE1 TRP A   4      -3.557   3.350  20.686  0.00  0.00    -0.352 N 
ATOM     58  HE1 TRP A   4      -3.296   2.457  20.221  0.00  0.00    +0.166 HD
ATOM     59  CD1 TRP A   4      -2.721   4.406  20.898  0.00  0.00    +0.068 A 
ENDBRANCH  49  50
ENDBRANCH  21  49
ENDBRANCH  18  21
ENDBRANCH  16  17
ENDBRANCH  14  16
ENDBRANCH  11  12
BRANCH  11  60
ATOM     60  CB  GLY A   6      -9.906   8.087  25.257  0.00  0.00    +0.041 C 
BRANCH  60  61
ATOM     61  CG  GLY A   6      -9.924   7.141  24.076  0.00  0.00    +0.116 C 
BRANCH  61  62
ATOM     62  CD  GLY A   6     -11.209   6.369  23.980  0.00  0.00    +0.365 C 
ATOM     63  OE2 GLY A   6     -11.162   5.131  24.003  0.00  0.00    -0.246 OA
ATOM     64  OE1 GLY A   6     -12.272   7.009  23.885  0.00  0.00    -0.246 OA
ENDBRANCH  61  62
ENDBRANCH  60  61
ENDBRANCH  11  60
ENDBRANCH   8  11
ENDBRANCH   6   7
ENDBRANCH   4   6
ENDBRANCH   1   2
BRANCH   1  65
ATOM     65  C   SER A   8      -6.199  11.022  31.820  0.00  0.00    +0.242 C 
ATOM     66  N   GLY A   9      -6.025   9.827  32.364  0.00  0.00    -0.297 N 
ATOM     67  H   GLY A   9      -5.483   9.113  31.837  0.00  0.00    +0.150 HD
ATOM     68  O   SER A   8      -6.864  11.924  32.347  0.00  0.00    -0.273 OA
BRANCH  66  69
ATOM     69  CA  GLY A   9      -6.564   9.472  33.676  0.00  0.00    +0.149 C 
ATOM     70  CB  GLY A   9      -5.906  10.291  34.797  0.00  0.00    +0.031 C 
BRANCH  69  71
ATOM     71  C   GLY A   9      -8.090   9.567  33.753  0.00  0.00    +0.241 C 
ATOM     72  O   GLY A   9      -8.637   9.765  34.834  0.00  0.00    -0.273 OA
ATOM     73  N   GLY A  10      -8.766   9.430  32.611  0.00  0.00    -0.298 N 
ATOM     74  H   GLY A  10      -8.250   9.310  31.716  0.00  0.00    +0.150 HD
BRANCH  73  75
ATOM     75  CA  GLY A  10     -10.232   9.448  32.609  0.00  0.00    +0.137 C 
BRANCH  75  76
ATOM     76  C   GLY A  10     -10.784   8.187  33.237  0.00  0.00    +0.227 C 
ATOM     77  O   GLY A  10     -10.252   7.093  33.071  0.00  0.00    -0.286 OA
ENDBRANCH  75  76
BRANCH  75  78
ATOM     78  CB  GLY A  10     -10.788   9.597  31.186  0.00  0.00    +0.031 C 
BRANCH  78  79
ATOM     79  CG  GLY A  10     -10.530  10.930  30.573  0.00  0.00    +0.045 C 
BRANCH  79  80
ATOM     80  CD  GLY A  10     -11.432  11.150  29.391  0.00  0.00    +0.174 C 
BRANCH  80  81
ATOM     81  NE  GLY A  10     -11.003  12.309  28.644  0.00  0.00    -0.265 N 
ATOM     82  HE  GLY A  10     -10.461  13.039  29.148  0.00  0.00    +0.259 HD
ATOM     83  CZ  GLY A  10     -11.256  12.503  27.355  0.00  0.00    +0.342 C 
ATOM     84  NH2 GLY A  10     -10.781  13.588  26.761  0.00  0.00    -0.292 N 
ATOM     85 HH21 GLY A  10     -10.218  14.274  27.304  0.00  0.00    +0.255 HD
ATOM     86 HH22 GLY A  10     -10.971  13.754  25.752  0.00  0.00    +0.255 HD
ATOM     87  NH1 GLY A  10     -11.964  11.623  26.648  0.00  0.00    -0.292 N 
ATOM     88 HH11 GLY A  10     -12.331  10.764  27.105  0.00  0.00    +0.255 HD
ATOM     89 HH12 GLY A  10     -12.150  11.796  25.639  0.00  0.00    +0.255 HD
ENDBRANCH  80  81
ENDBRANCH  79  80
ENDBRANCH  78  79
ENDBRANCH  75  78
ENDBRANCH  73  75
ENDBRANCH  69  71
ENDBRANCH  66  69
ENDBRANCH   1  65
BRANCH   1  90
ATOM     90  CB  SER A   8      -4.353  12.168  30.635  0.00  0.00    +0.098 C 
BRANCH  90  91
ATOM     91  SG  SER A   8      -3.644  12.734  29.112  0.00  0.00    -0.080 S 
BRANCH  91  92
ATOM     92  SG  TRP A   4      -2.201  14.023  29.747  0.00  0.00    -0.080 S 
BRANCH  92  93
ATOM     93  CB  TRP A   4      -0.791  12.951  30.206  0.00  0.00    +0.098 C 
BRANCH  93  94
ATOM     94  CA  TRP A   4      -0.396  11.851  29.207  0.00  0.00    +0.160 C 
BRANCH  94  97
ATOM     95  C   SER A   3      -0.298   9.911  30.618  0.00  0.00    +0.241 C 
ATOM     96  O   SER A   3      -1.521   9.912  30.755  0.00  0.00    -0.273 OA
ATOM     97  N   TRP A   4       0.345  10.811  29.887  0.00  0.00    -0.296 N 
ATOM     98  H   TRP A   4       1.381  10.769  29.803  0.00  0.00    +0.150 HD
BRANCH  95  99
ATOM     99  CA  SER A   3       0.570   8.875  31.331  0.00  0.00    +0.149 C 
ATOM    100  CB  SER A   3       1.332   7.996  30.342  0.00  0.00    +0.031 C 
BRANCH  99 103
ATOM    101  C   VAL A   2      -0.685   8.530  33.359  0.00  0.00    +0.241 C 
ATOM    102  O   VAL A   2      -0.162   9.489  33.928  0.00  0.00    -0.273 OA
ATOM    103  N   SER A   3      -0.253   8.052  32.212  0.00  0.00    -0.297 N 
ATOM    104  H   SER A   3      -0.499   7.081  31.931  0.00  0.00    +0.150 HD
BRANCH 101 105
ATOM    105  CA  VAL A   2      -1.883   7.813  33.960  0.00  0.00    +0.160 C 
BRANCH 105 108
ATOM    106  C   ILE A   1      -2.893   7.711  36.197  0.00  0.00    +0.238 C 
ATOM    107  O   ILE A   1      -3.598   6.755  35.906  0.00  0.00    -0.274 OA
ATOM    108  N   VAL A   2      -2.024   8.258  35.356  0.00  0.00    -0.297 N 
ATOM    109  H   VAL A   2      -1.419   9.032  35.697  0.00  0.00    +0.150 HD
BRANCH 106 110
ATOM    110  CA  ILE A   1      -3.002   8.320  37.587  0.00  0.00    +0.145 C 
BRANCH 110 111
ATOM    111  N   ILE A   1      -4.429   8.415  37.904  0.00  0.00    -0.238 NA
ATOM    112  H   ILE A   1      -5.069   7.661  37.582  0.00  0.00    +0.142 HD
ENDBRANCH 110 111
BRANCH 110 113
ATOM    113  CB  ILE A   1      -2.267   7.401  38.573  0.00  0.00    +0.038 C 
BRANCH 113 114
ATOM    114  CG  ILE A   1      -2.249   7.872  40.011  0.00  0.00    +0.116 C 
BRANCH 114 115
ATOM    115  CD  ILE A   1      -1.228   7.134  40.840  0.00  0.00    +0.365 C 
ATOM    116  OE2 ILE A   1      -0.356   7.833  41.413  0.00  0.00    -0.246 OA
ATOM    117  OE1 ILE A   1      -1.336   5.875  40.934  0.00  0.00    -0.246 OA
ENDBRANCH 114 115
ENDBRANCH 113 114
ENDBRANCH 110 113
ENDBRANCH 106 110
ENDBRANCH 105 108
BRANCH 105 118
ATOM    118  CB  VAL A   2      -3.159   8.188  33.195  0.00  0.00    +0.143 C 
BRANCH 118 119
ATOM    119  CG  VAL A   2      -3.384   7.438  31.890  0.00  0.00    +0.367 C 
ATOM    120  OD2 VAL A   2      -2.592   6.590  31.461  0.00  0.00    -0.246 OA
ATOM    121  OD1 VAL A   2      -4.429   7.752  31.271  0.00  0.00    -0.246 OA
ENDBRANCH 118 119
ENDBRANCH 105 118
ENDBRANCH 101 105
ENDBRANCH  99 103
ENDBRANCH  95  99
ENDBRANCH  94  97
BRANCH  94 122
ATOM    122  C   TRP A   4       0.412  12.420  28.040  0.00  0.00    +0.242 C 
ATOM    123  O   TRP A   4       1.517  11.997  27.755  0.00  0.00    -0.273 OA
ATOM    124  N   GLN A   5      -0.167  13.399  27.359  0.00  0.00    -0.297 N 
ATOM    125  H   GLN A   5      -1.131  13.688  27.620  0.00  0.00    +0.150 HD
BRANCH 124 126
ATOM    126  CA  GLN A   5       0.502  14.091  26.250  0.00  0.00    +0.149 C 
BRANCH 126 127
ATOM    127  C   GLN A   5       1.870  14.589  26.680  0.00  0.00    +0.241 C 
ATOM    128  O   GLN A   5       2.012  15.163  27.758  0.00  0.00    -0.273 OA
ATOM    129  N   GLY A   6       2.871  14.287  25.846  0.00  0.00    -0.295 N 
ATOM    130  H   GLY A   6       2.640  13.788  24.963  0.00  0.00    +0.150 HD
BRANCH 129 131
ATOM    131  CA  GLY A   6       4.264  14.617  26.103  0.00  0.00    +0.176 C 
BRANCH 131 132
ATOM    132  C   GLY A   6       5.040  13.429  26.663  0.00  0.00    +0.243 C 
ATOM    133  N   ASP A   7       4.340  12.437  27.232  0.00  0.00    -0.296 N 
ATOM    134  H   ASP A   7       3.321  12.567  27.391  0.00  0.00    +0.150 HD
ATOM    135  O   GLY A   6       6.269  13.435  26.617  0.00  0.00    -0.273 OA
BRANCH 133 136
ATOM    136  CA  ASP A   7       4.967  11.171  27.638  0.00  0.00    +0.160 C 
BRANCH 136 137
ATOM    137  C   ASP A   7       5.048  10.164  26.505  0.00  0.00    +0.241 C 
ATOM    138  O   ASP A   7       5.817   9.193  26.577  0.00  0.00    -0.273 OA
ATOM    139  N   SER A   8       4.230  10.348  25.477  0.00  0.00    -0.295 N 
ATOM    140  H   SER A   8       3.668  11.220  25.409  0.00  0.00    +0.150 HD
BRANCH 139 141
ATOM    141  CA  SER A   8       4.120   9.330  24.447  0.00  0.00    +0.178 C 
BRANCH 141 142
ATOM    142  C   SER A   8       5.474   9.160  23.740  0.00  0.00    +0.243 C 
ATOM    143  O   SER A   8       6.255  10.105  23.597  0.00  0.00    -0.273 OA
ATOM    144  N   GLY A   9       5.756   7.927  23.356  0.00  0.00    -0.295 N 
ATOM    145  H   GLY A   9       5.008   7.207  23.413  0.00  0.00    +0.150 HD
BRANCH 144 146
ATOM    146  CA  GLY A   9       7.057   7.533  22.860  0.00  0.00    +0.176 C 
BRANCH 146 147
ATOM    147  C   GLY A   9       7.992   7.052  23.933  0.00  0.00    +0.243 C 
ATOM    148  N   GLY A  10       7.687   7.353  25.198  0.00  0.00    -0.296 N 
ATOM    149  H   GLY A  10       6.787   7.835  25.395  0.00  0.00    +0.150 HD
ATOM    150  O   GLY A   9       8.980   6.374  23.618  0.00  0.00    -0.273 OA
BRANCH 148 151
ATOM    151  CA  GLY A  10       8.565   7.032  26.306  0.00  0.00    +0.163 C 
BRANCH 151 152
ATOM    152  C   GLY A  10       8.462   5.617  26.826  0.00  0.00    +0.229 C 
ATOM    153  O   GLY A  10       7.728   4.786  26.279  0.00  0.00    -0.286 OA
ENDBRANCH 151 152
ENDBRANCH 148 151
ENDBRANCH 146 147
ENDBRANCH 144 146
ENDBRANCH 141 142
BRANCH 141 154
ATOM    154  CB  SER A   8       2.929   9.581  23.516  0.00  0.00    +0.166 C 
BRANCH 154 155
ATOM    155  OG  SER A   8       3.185  10.638  22.653  0.00  0.00    -0.380 OA
ATOM    156  H   SER A   8       2.402  10.779  22.064  0.00  0.00    +0.211 HD
ENDBRANCH 154 155
ENDBRANCH 141 154
ENDBRANCH 139 141
ENDBRANCH 136 137
BRANCH 136 157
ATOM    157  CB  ASP A   7       4.183  10.518  28.770  0.00  0.00    +0.143 C 
BRANCH 157 158
ATOM    158  CG  ASP A   7       4.177  11.345  30.037  0.00  0.00    +0.367 C 
ATOM    159  OD2 ASP A   7       3.091  11.429  30.679  0.00  0.00    -0.246 OA
ATOM    160  OD1 ASP A   7       5.257  11.865  30.425  0.00  0.00    -0.246 OA
ENDBRANCH 157 158
ENDBRANCH 136 157
ENDBRANCH 133 136
ENDBRANCH 131 132
ENDBRANCH 129 131
ENDBRANCH 126 127
BRANCH 126 161
ATOM    161  CB  GLN A   5      -0.367  15.269  25.780  0.00  0.00    +0.039 C 
BRANCH 161 162
ATOM    162  CG  GLN A   5       0.328  16.304  24.896  0.00  0.00    +0.087 C 
BRANCH 162 163
ATOM    163  CD  GLN A   5       0.477  15.823  23.495  0.00  0.00    +0.219 C 
ATOM    164  NE2 GLN A   5       1.679  15.987  22.932  0.00  0.00    -0.329 N 
ATOM    165 HE21 GLN A   5       2.453  16.421  23.475  0.00  0.00    +0.145 HD
ATOM    166 HE22 GLN A   5       1.840  15.680  21.951  0.00  0.00    +0.145 HD
ATOM    167  OE1 GLN A   5      -0.481  15.313  22.900  0.00  0.00    -0.275 OA
ENDBRANCH 162 163
ENDBRANCH 161 162
ENDBRANCH 126 161
ENDBRANCH 124 126
ENDBRANCH  94 122
ENDBRANCH  93  94
ENDBRANCH  92  93
ENDBRANCH  91  92
ENDBRANCH  90  91
ENDBRANCH   1  90
TORSDOF 71
REMARK  Name = ../refined-set-2016/2y5f/2y5f_pocket.pdb
REMARK  228 active torsions:
REMARK  status: ('A' for Active; 'I' for Inactive)
REMARK    1  A    between atoms: _1  and  _5
REMARK    2  A    between atoms: _5  and  _6
REMARK    3  A    between atoms: _5  and  _8
REMARK    4  A    between atoms: _8  and  _9
REMARK    5  A    between atoms: _12  and  _14
REMARK    6  A    between atoms: _14  and  _15
REMARK    7  A    between atoms: _14  and  _17
REMARK    8  A    between atoms: _20  and  _22
REMARK    9  A    between atoms: _22  and  _23
REMARK   10  A    between atoms: _22  and  _25
REMARK   11  A    between atoms: _25  and  _26
REMARK   12  A    between atoms: _32  and  _34
REMARK   13  A    between atoms: _34  and  _35
REMARK   14  A    between atoms: _34  and  _37
REMARK   15  A    between atoms: _39  and  _41
REMARK   16  A    between atoms: _41  and  _42
REMARK   17  A    between atoms: _41  and  _44
REMARK   18  A    between atoms: _44  and  _45
REMARK   19  A    between atoms: _50  and  _52
REMARK   20  A    between atoms: _52  and  _53
REMARK   21  A    between atoms: _52  and  _55
REMARK   22  A    between atoms: _55  and  _56
REMARK   23  A    between atoms: _56  and  _57
REMARK   24  A    between atoms: _62  and  _64
REMARK   25  A    between atoms: _64  and  _65
REMARK   26  A    between atoms: _64  and  _67
REMARK   27  A    between atoms: _67  and  _68
REMARK   28  A    between atoms: _74  and  _76
REMARK   29  A    between atoms: _76  and  _77
REMARK   30  A    between atoms: _76  and  _79
REMARK   31  A    between atoms: _79  and  _80
REMARK   32  A    between atoms: _83  and  _85
REMARK   33  A    between atoms: _85  and  _86
REMARK   34  A    between atoms: _85  and  _88
REMARK   35  A    between atoms: _88  and  _89
REMARK   36  A    between atoms: _89  and  _90
REMARK   37  A    between atoms: _90  and  _91
REMARK   38  A    between atoms: _91  and  _92
REMARK   39  A    between atoms: _96  and  _98
REMARK   40  A    between atoms: _98  and  _99
REMARK   41  A    between atoms: _98  and  _101
REMARK   42  A    between atoms: _101  and  _102
REMARK   43  A    between atoms: _102  and  _103
REMARK   44  A    between atoms: _106  and  _108
REMARK   45  A    between atoms: _108  and  _109
REMARK   46  A    between atoms: _108  and  _111
REMARK   47  A    between atoms: _111  and  _112
REMARK   48  A    between atoms: _115  and  _117
REMARK   49  A    between atoms: _117  and  _118
REMARK   50  A    between atoms: _117  and  _120
REMARK   51  A    between atoms: _120  and  _121
REMARK   52  A    between atoms: _126  and  _127
REMARK   53  A    between atoms: _129  and  _131
REMARK   54  A    between atoms: _131  and  _132
REMARK   55  A    between atoms: _131  and  _134
REMARK   56  A    between atoms: _134  and  _135
REMARK   57  A    between atoms: _138  and  _140
REMARK   58  A    between atoms: _140  and  _141
REMARK   59  A    between atoms: _140  and  _143
REMARK   60  A    between atoms: _143  and  _144
REMARK   61  A    between atoms: _147  and  _149
REMARK   62  A    between atoms: _149  and  _150
REMARK   63  A    between atoms: _149  and  _152
REMARK   64  A    between atoms: _155  and  _157
REMARK   65  A    between atoms: _157  and  _158
REMARK   66  A    between atoms: _157  and  _160
REMARK   67  A    between atoms: _160  and  _161
REMARK   68  A    between atoms: _161  and  _162
REMARK   69  A    between atoms: _162  and  _163
REMARK   70  A    between atoms: _172  and  _174
REMARK   71  A    between atoms: _174  and  _175
REMARK   72  A    between atoms: _174  and  _177
REMARK   73  A    between atoms: _177  and  _178
REMARK   74  A    between atoms: _183  and  _185
REMARK   75  A    between atoms: _185  and  _186
REMARK   76  A    between atoms: _185  and  _188
REMARK   77  A    between atoms: _188  and  _189
REMARK   78  A    between atoms: _189  and  _190
REMARK   79  A    between atoms: _193  and  _195
REMARK   80  A    between atoms: _195  and  _196
REMARK   81  A    between atoms: _195  and  _198
REMARK   82  A    between atoms: _198  and  _199
REMARK   83  A    between atoms: _199  and  _200
REMARK   84  A    between atoms: _200  and  _201
REMARK   85  A    between atoms: _201  and  _202
REMARK   86  A    between atoms: _206  and  _208
REMARK   87  A    between atoms: _208  and  _209
REMARK   88  A    between atoms: _211  and  _213
REMARK   89  A    between atoms: _213  and  _214
REMARK   90  A    between atoms: _213  and  _216
REMARK   91  A    between atoms: _219  and  _221
REMARK   92  A    between atoms: _221  and  _222
REMARK   93  A    between atoms: _221  and  _224
REMARK   94  A    between atoms: _224  and  _225
REMARK   95  A    between atoms: _227  and  _229
REMARK   96  A    between atoms: _229  and  _230
REMARK   97  A    between atoms: _229  and  _232
REMARK   98  A    between atoms: _232  and  _233
REMARK   99  A    between atoms: _235  and  _237
REMARK  100  A    between atoms: _237  and  _238
REMARK  101  A    between atoms: _237  and  _240
REMARK  102  A    between atoms: _240  and  _241
REMARK  103  A    between atoms: _247  and  _249
REMARK  104  A    between atoms: _249  and  _250
REMARK  105  A    between atoms: _249  and  _252
REMARK  106  A    between atoms: _252  and  _253
REMARK  107  A    between atoms: _256  and  _258
REMARK  108  A    between atoms: _258  and  _259
REMARK  109  A    between atoms: _258  and  _261
REMARK  110  A    between atoms: _261  and  _262
REMARK  111  A    between atoms: _265  and  _267
REMARK  112  A    between atoms: _267  and  _268
REMARK  113  A    between atoms: _267  and  _270
REMARK  114  A    between atoms: _270  and  _271
REMARK  115  A    between atoms: _271  and  _272
REMARK  116  A    between atoms: _274  and  _276
REMARK  117  A    between atoms: _276  and  _277
REMARK  118  A    between atoms: _276  and  _279
REMARK  119  A    between atoms: _279  and  _280
REMARK  120  A    between atoms: _286  and  _288
REMARK  121  A    between atoms: _288  and  _289
REMARK  122  A    between atoms: _288  and  _291
REMARK  123  A    between atoms: _293  and  _295
REMARK  124  A    between atoms: _295  and  _296
REMARK  125  A    between atoms: _299  and  _301
REMARK  126  A    between atoms: _301  and  _302
REMARK  127  A    between atoms: _304  and  _306
REMARK  128  A    between atoms: _306  and  _307
REMARK  129  A    between atoms: _306  and  _309
REMARK  130  A    between atoms: _309  and  _310
REMARK  131  A    between atoms: _310  and  _311
REMARK  132  A    between atoms: _314  and  _316
REMARK  133  A    between atoms: _316  and  _317
REMARK  134  A    between atoms: _316  and  _319
REMARK  135  A    between atoms: _319  and  _320
REMARK  136  A    between atoms: _323  and  _325
REMARK  137  A    between atoms: _325  and  _326
REMARK  138  A    between atoms: _329  and  _331
REMARK  139  A    between atoms: _331  and  _332
REMARK  140  A    between atoms: _331  and  _334
REMARK  141  A    between atoms: _334  and  _335
REMARK  142  A    between atoms: _335  and  _458
REMARK  143  A    between atoms: _336  and  _338
REMARK  144  A    between atoms: _338  and  _339
REMARK  145  A    between atoms: _338  and  _341
REMARK  146  A    between atoms: _341  and  _342
REMARK  147  A    between atoms: _342  and  _343
REMARK  148  A    between atoms: _348  and  _350
REMARK  149  A    between atoms: _350  and  _351
REMARK  150  A    between atoms: _353  and  _355
REMARK  151  A    between atoms: _355  and  _356
REMARK  152  A    between atoms: _355  and  _358
REMARK  153  A    between atoms: _358  and  _359
REMARK  154  A    between atoms: _362  and  _364
REMARK  155  A    between atoms: _364  and  _365
REMARK  156  A    between atoms: _364  and  _367
REMARK  157  A    between atoms: _367  and  _368
REMARK  158  A    between atoms: _370  and  _372
REMARK  159  A    between atoms: _372  and  _373
REMARK  160  A    between atoms: _375  and  _377
REMARK  161  A    between atoms: _377  and  _378
REMARK  162  A    between atoms: _380  and  _382
REMARK  163  A    between atoms: _382  and  _383
REMARK  164  A    between atoms: _382  and  _385
REMARK  165  A    between atoms: _385  and  _386
REMARK  166  A    between atoms: _391  and  _393
REMARK  167  A    between atoms: _393  and  _394
REMARK  168  A    between atoms: _393  and  _396
REMARK  169  A    between atoms: _396  and  _397
REMARK  170  A    between atoms: _400  and  _402
REMARK  171  A    between atoms: _402  and  _403
REMARK  172  A    between atoms: _402  and  _405
REMARK  173  A    between atoms: _408  and  _410
REMARK  174  A    between atoms: _410  and  _411
REMARK  175  A    between atoms: _410  and  _413
REMARK  176  A    between atoms: _413  and  _414
REMARK  177  A    between atoms: _416  and  _418
REMARK  178  A    between atoms: _418  and  _419
REMARK  179  A    between atoms: _418  and  _421
REMARK  180  A    between atoms: _421  and  _422
REMARK  181  A    between atoms: _432  and  _434
REMARK  182  A    between atoms: _434  and  _435
REMARK  183  A    between atoms: _437  and  _439
REMARK  184  A    between atoms: _439  and  _440
REMARK  185  A    between atoms: _439  and  _442
REMARK  186  A    between atoms: _442  and  _443
REMARK  187  A    between atoms: _443  and  _444
REMARK  188  A    between atoms: _447  and  _449
REMARK  189  A    between atoms: _449  and  _450
REMARK  190  A    between atoms: _452  and  _454
REMARK  191  A    between atoms: _454  and  _455
REMARK  192  A    between atoms: _454  and  _457
REMARK  193  A    between atoms: _457  and  _458
REMARK  194  A    between atoms: _459  and  _461
REMARK  195  A    between atoms: _461  and  _462
REMARK  196  A    between atoms: _465  and  _467
REMARK  197  A    between atoms: _467  and  _468
REMARK  198  A    between atoms: _467  and  _470
REMARK  199  A    between atoms: _470  and  _471
REMARK  200  A    between atoms: _471  and  _472
REMARK  201  A    between atoms: _472  and  _473
REMARK  202  A    between atoms: _482  and  _484
REMARK  203  A    between atoms: _484  and  _485
REMARK  204  A    between atoms: _484  and  _487
REMARK  205  A    between atoms: _487  and  _488
REMARK  206  A    between atoms: _488  and  _489
REMARK  207  A    between atoms: _489  and  _490
REMARK  208  A    between atoms: _490  and  _491
REMARK  209  A    between atoms: _495  and  _497
REMARK  210  A    between atoms: _497  and  _498
REMARK  211  A    between atoms: _497  and  _500
REMARK  212  A    between atoms: _500  and  _501
REMARK  213  A    between atoms: _506  and  _507
REMARK  214  A    between atoms: _509  and  _511
REMARK  215  A    between atoms: _511  and  _512
REMARK  216  A    between atoms: _514  and  _516
REMARK  217  A    between atoms: _516  and  _517
REMARK  218  A    between atoms: _516  and  _519
REMARK  219  A    between atoms: _519  and  _520
REMARK  220  A    between atoms: _523  and  _525
REMARK  221  A    between atoms: _525  and  _526
REMARK  222  A    between atoms: _525  and  _528
REMARK  223  A    between atoms: _528  and  _529
REMARK  224  A    between atoms: _534  and  _535
REMARK  225  A    between atoms: _537  and  _539
REMARK  226  A    between atoms: _539  and  _540
REMARK  227  A    between atoms: _539  and  _542
REMARK  228  A    between atoms: _542  and  _543
REMARK                            x       y       z     vdW  Elec       q    Type
REMARK                         _______ _______ _______ _____ _____    ______ ____
ROOT
ATOM      1  CB  HIS A   1       5.861   0.895  29.312  0.00  0.00    +0.072 C 
ENDROOT
BRANCH   1   2
ATOM      2  CG  HIS A   1       5.097  -0.067  30.175  0.00  0.00    +0.082 A 
ATOM      3  CD2 HIS A   1       3.944   0.079  30.870  0.00  0.00    +0.115 A 
ATOM      4  NE2 HIS A   1       3.676  -1.119  31.475  0.00  0.00    -0.221 NA
ATOM      5  CE1 HIS A   1       4.627  -1.979  31.142  0.00  0.00    +0.199 A 
ATOM      6  ND1 HIS A   1       5.504  -1.373  30.349  0.00  0.00    -0.227 NA
ENDBRANCH   1   2
BRANCH   1   7
ATOM      7  CA  HIS A   1       7.214   1.358  29.891  0.00  0.00    +0.139 C 
BRANCH   7   8
ATOM      8  N   HIS A   1       7.902   2.216  28.946  0.00  0.00    -0.239 NA
ATOM      9  H   HIS A   1       8.139   1.819  28.015  0.00  0.00    +0.142 HD
ENDBRANCH   7   8
BRANCH   7  10
ATOM     10  C   HIS A   1       8.155   0.183  30.142  0.00  0.00    +0.224 C 
ATOM     11  O   HIS A   1       8.531  -0.528  29.195  0.00  0.00    -0.287 OA
ENDBRANCH   7  10
ENDBRANCH   1   7
TORSDOF 4
REMARK  Name = ../refined-set-2016/2y5f/2y5f_pocket.pdb
REMARK  228 active torsions:
REMARK  status: ('A' for Active; 'I' for Inactive)
REMARK    1  A    between atoms: _1  and  _5
REMARK    2  A    between atoms: _5  and  _6
REMARK    3  A    between atoms: _5  and  _8
REMARK    4  A    between atoms: _8  and  _9
REMARK    5  A    between atoms: _12  and  _14
REMARK    6  A    between atoms: _14  and  _15
REMARK    7  A    between atoms: _14  and  _17
REMARK    8  A    between atoms: _20  and  _22
REMARK    9  A    between atoms: _22  and  _23
REMARK   10  A    between atoms: _22  and  _25
REMARK   11  A    between atoms: _25  and  _26
REMARK   12  A    between atoms: _32  and  _34
REMARK   13  A    between atoms: _34  and  _35
REMARK   14  A    between atoms: _34  and  _37
REMARK   15  A    between atoms: _39  and  _41
REMARK   16  A    between atoms: _41  and  _42
REMARK   17  A    between atoms: _41  and  _44
REMARK   18  A    between atoms: _44  and  _45
REMARK   19  A    between atoms: _50  and  _52
REMARK   20  A    between atoms: _52  and  _53
REMARK   21  A    between atoms: _52  and  _55
REMARK   22  A    between atoms: _55  and  _56
REMARK   23  A    between atoms: _56  and  _57
REMARK   24  A    between atoms: _62  and  _64
REMARK   25  A    between atoms: _64  and  _65
REMARK   26  A    between atoms: _64  and  _67
REMARK   27  A    between atoms: _67  and  _68
REMARK   28  A    between atoms: _74  and  _76
REMARK   29  A    between atoms: _76  and  _77
REMARK   30  A    between atoms: _76  and  _79
REMARK   31  A    between atoms: _79  and  _80
REMARK   32  A    between atoms: _83  and  _85
REMARK   33  A    between atoms: _85  and  _86
REMARK   34  A    between atoms: _85  and  _88
REMARK   35  A    between atoms: _88  and  _89
REMARK   36  A    between atoms: _89  and  _90
REMARK   37  A    between atoms: _90  and  _91
REMARK   38  A    between atoms: _91  and  _92
REMARK   39  A    between atoms: _96  and  _98
REMARK   40  A    between atoms: _98  and  _99
REMARK   41  A    between atoms: _98  and  _101
REMARK   42  A    between atoms: _101  and  _102
REMARK   43  A    between atoms: _102  and  _103
REMARK   44  A    between atoms: _106  and  _108
REMARK   45  A    between atoms: _108  and  _109
REMARK   46  A    between atoms: _108  and  _111
REMARK   47  A    between atoms: _111  and  _112
REMARK   48  A    between atoms: _115  and  _117
REMARK   49  A    between atoms: _117  and  _118
REMARK   50  A    between atoms: _117  and  _120
REMARK   51  A    between atoms: _120  and  _121
REMARK   52  A    between atoms: _126  and  _127
REMARK   53  A    between atoms: _129  and  _131
REMARK   54  A    between atoms: _131  and  _132
REMARK   55  A    between atoms: _131  and  _134
REMARK   56  A    between atoms: _134  and  _135
REMARK   57  A    between atoms: _138  and  _140
REMARK   58  A    between atoms: _140  and  _141
REMARK   59  A    between atoms: _140  and  _143
REMARK   60  A    between atoms: _143  and  _144
REMARK   61  A    between atoms: _147  and  _149
REMARK   62  A    between atoms: _149  and  _150
REMARK   63  A    between atoms: _149  and  _152
REMARK   64  A    between atoms: _155  and  _157
REMARK   65  A    between atoms: _157  and  _158
REMARK   66  A    between atoms: _157  and  _160
REMARK   67  A    between atoms: _160  and  _161
REMARK   68  A    between atoms: _161  and  _162
REMARK   69  A    between atoms: _162  and  _163
REMARK   70  A    between atoms: _172  and  _174
REMARK   71  A    between atoms: _174  and  _175
REMARK   72  A    between atoms: _174  and  _177
REMARK   73  A    between atoms: _177  and  _178
REMARK   74  A    between atoms: _183  and  _185
REMARK   75  A    between atoms: _185  and  _186
REMARK   76  A    between atoms: _185  and  _188
REMARK   77  A    between atoms: _188  and  _189
REMARK   78  A    between atoms: _189  and  _190
REMARK   79  A    between atoms: _193  and  _195
REMARK   80  A    between atoms: _195  and  _196
REMARK   81  A    between atoms: _195  and  _198
REMARK   82  A    between atoms: _198  and  _199
REMARK   83  A    between atoms: _199  and  _200
REMARK   84  A    between atoms: _200  and  _201
REMARK   85  A    between atoms: _201  and  _202
REMARK   86  A    between atoms: _206  and  _208
REMARK   87  A    between atoms: _208  and  _209
REMARK   88  A    between atoms: _211  and  _213
REMARK   89  A    between atoms: _213  and  _214
REMARK   90  A    between atoms: _213  and  _216
REMARK   91  A    between atoms: _219  and  _221
REMARK   92  A    between atoms: _221  and  _222
REMARK   93  A    between atoms: _221  and  _224
REMARK   94  A    between atoms: _224  and  _225
REMARK   95  A    between atoms: _227  and  _229
REMARK   96  A    between atoms: _229  and  _230
REMARK   97  A    between atoms: _229  and  _232
REMARK   98  A    between atoms: _232  and  _233
REMARK   99  A    between atoms: _235  and  _237
REMARK  100  A    between atoms: _237  and  _238
REMARK  101  A    between atoms: _237  and  _240
REMARK  102  A    between atoms: _240  and  _241
REMARK  103  A    between atoms: _247  and  _249
REMARK  104  A    between atoms: _249  and  _250
REMARK  105  A    between atoms: _249  and  _252
REMARK  106  A    between atoms: _252  and  _253
REMARK  107  A    between atoms: _256  and  _258
REMARK  108  A    between atoms: _258  and  _259
REMARK  109  A    between atoms: _258  and  _261
REMARK  110  A    between atoms: _261  and  _262
REMARK  111  A    between atoms: _265  and  _267
REMARK  112  A    between atoms: _267  and  _268
REMARK  113  A    between atoms: _267  and  _270
REMARK  114  A    between atoms: _270  and  _271
REMARK  115  A    between atoms: _271  and  _272
REMARK  116  A    between atoms: _274  and  _276
REMARK  117  A    between atoms: _276  and  _277
REMARK  118  A    between atoms: _276  and  _279
REMARK  119  A    between atoms: _279  and  _280
REMARK  120  A    between atoms: _286  and  _288
REMARK  121  A    between atoms: _288  and  _289
REMARK  122  A    between atoms: _288  and  _291
REMARK  123  A    between atoms: _293  and  _295
REMARK  124  A    between atoms: _295  and  _296
REMARK  125  A    between atoms: _299  and  _301
REMARK  126  A    between atoms: _301  and  _302
REMARK  127  A    between atoms: _304  and  _306
REMARK  128  A    between atoms: _306  and  _307
REMARK  129  A    between atoms: _306  and  _309
REMARK  130  A    between atoms: _309  and  _310
REMARK  131  A    between atoms: _310  and  _311
REMARK  132  A    between atoms: _314  and  _316
REMARK  133  A    between atoms: _316  and  _317
REMARK  134  A    between atoms: _316  and  _319
REMARK  135  A    between atoms: _319  and  _320
REMARK  136  A    between atoms: _323  and  _325
REMARK  137  A    between atoms: _325  and  _326
REMARK  138  A    between atoms: _329  and  _331
REMARK  139  A    between atoms: _331  and  _332
REMARK  140  A    between atoms: _331  and  _334
REMARK  141  A    between atoms: _334  and  _335
REMARK  142  A    between atoms: _335  and  _458
REMARK  143  A    between atoms: _336  and  _338
REMARK  144  A    between atoms: _338  and  _339
REMARK  145  A    between atoms: _338  and  _341
REMARK  146  A    between atoms: _341  and  _342
REMARK  147  A    between atoms: _342  and  _343
REMARK  148  A    between atoms: _348  and  _350
REMARK  149  A    between atoms: _350  and  _351
REMARK  150  A    between atoms: _353  and  _355
REMARK  151  A    between atoms: _355  and  _356
REMARK  152  A    between atoms: _355  and  _358
REMARK  153  A    between atoms: _358  and  _359
REMARK  154  A    between atoms: _362  and  _364
REMARK  155  A    between atoms: _364  and  _365
REMARK  156  A    between atoms: _364  and  _367
REMARK  157  A    between atoms: _367  and  _368
REMARK  158  A    between atoms: _370  and  _372
REMARK  159  A    between atoms: _372  and  _373
REMARK  160  A    between atoms: _375  and  _377
REMARK  161  A    between atoms: _377  and  _378
REMARK  162  A    between atoms: _380  and  _382
REMARK  163  A    between atoms: _382  and  _383
REMARK  164  A    between atoms: _382  and  _385
REMARK  165  A    between atoms: _385  and  _386
REMARK  166  A    between atoms: _391  and  _393
REMARK  167  A    between atoms: _393  and  _394
REMARK  168  A    between atoms: _393  and  _396
REMARK  169  A    between atoms: _396  and  _397
REMARK  170  A    between atoms: _400  and  _402
REMARK  171  A    between atoms: _402  and  _403
REMARK  172  A    between atoms: _402  and  _405
REMARK  173  A    between atoms: _408  and  _410
REMARK  174  A    between atoms: _410  and  _411
REMARK  175  A    between atoms: _410  and  _413
REMARK  176  A    between atoms: _413  and  _414
REMARK  177  A    between atoms: _416  and  _418
REMARK  178  A    between atoms: _418  and  _419
REMARK  179  A    between atoms: _418  and  _421
REMARK  180  A    between atoms: _421  and  _422
REMARK  181  A    between atoms: _432  and  _434
REMARK  182  A    between atoms: _434  and  _435
REMARK  183  A    between atoms: _437  and  _439
REMARK  184  A    between atoms: _439  and  _440
REMARK  185  A    between atoms: _439  and  _442
REMARK  186  A    between atoms: _442  and  _443
REMARK  187  A    between atoms: _443  and  _444
REMARK  188  A    between atoms: _447  and  _449
REMARK  189  A    between atoms: _449  and  _450
REMARK  190  A    between atoms: _452  and  _454
REMARK  191  A    between atoms: _454  and  _455
REMARK  192  A    between atoms: _454  and  _457
REMARK  193  A    between atoms: _457  and  _458
REMARK  194  A    between atoms: _459  and  _461
REMARK  195  A    between atoms: _461  and  _462
REMARK  196  A    between atoms: _465  and  _467
REMARK  197  A    between atoms: _467  and  _468
REMARK  198  A    between atoms: _467  and  _470
REMARK  199  A    between atoms: _470  and  _471
REMARK  200  A    between atoms: _471  and  _472
REMARK  201  A    between atoms: _472  and  _473
REMARK  202  A    between atoms: _482  and  _484
REMARK  203  A    between atoms: _484  and  _485
REMARK  204  A    between atoms: _484  and  _487
REMARK  205  A    between atoms: _487  and  _488
REMARK  206  A    between atoms: _488  and  _489
REMARK  207  A    between atoms: _489  and  _490
REMARK  208  A    between atoms: _490  and  _491
REMARK  209  A    between atoms: _495  and  _497
REMARK  210  A    between atoms: _497  and  _498
REMARK  211  A    between atoms: _497  and  _500
REMARK  212  A    between atoms: _500  and  _501
REMARK  213  A    between atoms: _506  and  _507
REMARK  214  A    between atoms: _509  and  _511
REMARK  215  A    between atoms: _511  and  _512
REMARK  216  A    between atoms: _514  and  _516
REMARK  217  A    between atoms: _516  and  _517
REMARK  218  A    between atoms: _516  and  _519
REMARK  219  A    between atoms: _519  and  _520
REMARK  220  A    between atoms: _523  and  _525
REMARK  221  A    between atoms: _525  and  _526
REMARK  222  A    between atoms: _525  and  _528
REMARK  223  A    between atoms: _528  and  _529
REMARK  224  A    between atoms: _534  and  _535
REMARK  225  A    between atoms: _537  and  _539
REMARK  226  A    between atoms: _539  and  _540
REMARK  227  A    between atoms: _539  and  _542
REMARK  228  A    between atoms: _542  and  _543
REMARK                            x       y       z     vdW  Elec       q    Type
REMARK                         _______ _______ _______ _____ _____    ______ ____
ROOT
ATOM      1  C   GLY A   3      -3.083   2.892  27.954  0.00  0.00    +0.243 C 
ATOM      2  O   GLY A   3      -3.151   1.709  28.333  0.00  0.00    -0.273 OA
ATOM      3  N   ILE A   4      -2.781   3.255  26.706  0.00  0.00    -0.297 N 
ATOM      4  H   ILE A   4      -2.727   4.268  26.477  0.00  0.00    +0.150 HD
ENDROOT
BRANCH   3   5
ATOM      5  CA  ILE A   4      -2.524   2.282  25.654  0.00  0.00    +0.149 C 
BRANCH   5   6
ATOM      6  C   ILE A   4      -1.046   2.345  25.237  0.00  0.00    +0.241 C 
ATOM      7  N   TYR A   5      -0.412   1.182  25.212  0.00  0.00    -0.297 N 
ATOM      8  H   TYR A   5      -0.975   0.317  25.341  0.00  0.00    +0.150 HD
ATOM      9  O   ILE A   4      -0.511   3.426  24.992  0.00  0.00    -0.273 OA
BRANCH   7  10
ATOM     10  CA  TYR A   5       1.019   1.040  25.016  0.00  0.00    +0.153 C 
BRANCH  10  11
ATOM     11  C   TYR A   5       1.291   0.097  23.857  0.00  0.00    +0.241 C 
ATOM     12  O   TYR A   5       0.589  -0.897  23.653  0.00  0.00    -0.273 OA
ATOM     13  N   THR A   6       2.340   0.381  23.105  0.00  0.00    -0.296 N 
ATOM     14  H   THR A   6       2.823   1.293  23.230  0.00  0.00    +0.150 HD
BRANCH  13  15
ATOM     15  CA  THR A   6       2.833  -0.551  22.109  0.00  0.00    +0.164 C 
BRANCH  15  16
ATOM     16  C   THR A   6       3.406  -1.772  22.823  0.00  0.00    +0.229 C 
ATOM     17  O   THR A   6       4.198  -1.620  23.747  0.00  0.00    -0.286 OA
ENDBRANCH  15  16
BRANCH  15  18
ATOM     18  CB  THR A   6       3.908   0.069  21.233  0.00  0.00    +0.136 C 
ATOM     19  CG2 THR A   6       4.318  -0.868  20.077  0.00  0.00    +0.034 C 
BRANCH  18  20
ATOM     20  OG1 THR A   6       3.416   1.314  20.724  0.00  0.00    -0.382 OA
ATOM     21  HG1 THR A   6       4.107   1.731  20.150  0.00  0.00    +0.210 HD
ENDBRANCH  18  20
ENDBRANCH  15  18
ENDBRANCH  13  15
ENDBRANCH  10  11
BRANCH  10  22
ATOM     22  CB  TYR A   5       1.658   0.437  26.282  0.00  0.00    +0.055 C 
BRANCH  22  23
ATOM     23  CG  TYR A   5       1.522   1.340  27.486  0.00  0.00    -0.020 A 
ATOM     24  CD2 TYR A   5       0.342   1.435  28.200  0.00  0.00    -0.001 A 
ATOM     25  CE2 TYR A   5       0.226   2.314  29.286  0.00  0.00    +0.036 A 
ATOM     26  CZ  TYR A   5       1.285   3.119  29.643  0.00  0.00    +0.134 A 
ATOM     27  CE1 TYR A   5       2.463   3.015  28.960  0.00  0.00    +0.036 A 
ATOM     28  CD1 TYR A   5       2.578   2.138  27.880  0.00  0.00    -0.001 A 
BRANCH  26  29
ATOM     29  OH  TYR A   5       1.209   3.966  30.719  0.00  0.00    -0.506 OA
ATOM     30  HH  TYR A   5       0.297   3.929  31.103  0.00  0.00    +0.292 HD
ENDBRANCH  26  29
ENDBRANCH  22  23
ENDBRANCH  10  22
ENDBRANCH   7  10
ENDBRANCH   5   6
BRANCH   5  31
ATOM     31  CB  ILE A   4      -3.426   2.474  24.412  0.00  0.00    +0.027 C 
ATOM     32  CG2 ILE A   4      -3.286   1.256  23.525  0.00  0.00    +0.002 C 
BRANCH  31  33
ATOM     33  CG1 ILE A   4      -4.897   2.745  24.786  0.00  0.00    +0.002 C 
ATOM     34  CD1 ILE A   4      -5.610   1.712  25.630  0.00  0.00    +0.000 C 
ENDBRANCH  31  33
ENDBRANCH   5  31
ENDBRANCH   3   5
BRANCH   1  35
ATOM     35  CA  GLY A   3      -3.346   4.011  28.941  0.00  0.00    +0.176 C 
BRANCH  35  37
ATOM     36  C   TYR A   2      -5.701   3.758  29.474  0.00  0.00    +0.241 C 
ATOM     37  N   GLY A   3      -4.431   3.627  29.828  0.00  0.00    -0.295 N 
ATOM     38  H   GLY A   3      -4.205   3.239  30.766  0.00  0.00    +0.150 HD
ATOM     39  O   TYR A   2      -6.046   4.340  28.444  0.00  0.00    -0.273 OA
BRANCH  36  40
ATOM     40  CA  TYR A   2      -6.735   3.110  30.382  0.00  0.00    +0.153 C 
BRANCH  40  43
ATOM     41  C   LYS A   1      -8.886   4.210  30.817  0.00  0.00    +0.238 C 
ATOM     42  O   LYS A   1      -8.570   4.582  31.951  0.00  0.00    -0.274 OA
ATOM     43  N   TYR A   2      -8.084   3.516  30.016  0.00  0.00    -0.297 N 
ATOM     44  H   TYR A   2      -8.440   3.248  29.076  0.00  0.00    +0.150 HD
BRANCH  41  45
ATOM     45  CA  LYS A   1     -10.246   4.567  30.232  0.00  0.00    +0.145 C 
BRANCH  45  46
ATOM     46  N   LYS A   1     -11.243   4.644  31.287  0.00  0.00    -0.238 NA
ATOM     47  H   LYS A   1     -11.081   5.303  32.075  0.00  0.00    +0.142 HD
ENDBRANCH  45  46
BRANCH  45  48
ATOM     48  CB  LYS A   1     -10.099   5.881  29.474  0.00  0.00    +0.026 C 
BRANCH  48  49
ATOM     49  CG  LYS A   1     -11.393   6.373  28.778  0.00  0.00    -0.000 C 
BRANCH  49  50
ATOM     50  CD  LYS A   1     -11.832   5.490  27.600  0.00  0.00    -0.024 C 
BRANCH  50  51
ATOM     51  CE  LYS A   1     -13.196   5.939  27.020  0.00  0.00    -0.086 C 
BRANCH  51  52
ATOM     52  NZ  LYS A   1     -13.615   5.146  25.858  0.00  0.00    +0.380 N 
ATOM     53  HZ1 LYS A   1     -13.702   4.147  26.135  0.00  0.00    -0.089 HD
ATOM     54  HZ2 LYS A   1     -14.533   5.494  25.515  0.00  0.00    -0.089 HD
ATOM     55  HZ3 LYS A   1     -12.905   5.237  25.103  0.00  0.00    -0.089 HD
ENDBRANCH  51  52
ENDBRANCH  50  51
ENDBRANCH  49  50
ENDBRANCH  48  49
ENDBRANCH  45  48
ENDBRANCH  41  45
ENDBRANCH  40  43
BRANCH  40  56
ATOM     56  CB  TYR A   2      -6.626   1.595  30.298  0.00  0.00    +0.055 C 
BRANCH  56  57
ATOM     57  CG  TYR A   2      -7.631   0.886  31.195  0.00  0.00    -0.020 A 
ATOM     58  CD2 TYR A   2      -7.422   0.821  32.573  0.00  0.00    -0.001 A 
ATOM     59  CE2 TYR A   2      -8.320   0.187  33.402  0.00  0.00    +0.036 A 
ATOM     60  CZ  TYR A   2      -9.452  -0.398  32.861  0.00  0.00    +0.134 A 
ATOM     61  CE1 TYR A   2      -9.705  -0.336  31.513  0.00  0.00    +0.036 A 
ATOM     62  CD1 TYR A   2      -8.766   0.294  30.671  0.00  0.00    -0.001 A 
BRANCH  60  63
ATOM     63  OH  TYR A   2     -10.325  -1.008  33.713  0.00  0.00    -0.506 OA
ATOM     64  HH  TYR A   2     -10.428  -1.958  33.454  0.00  0.00    +0.292 HD
ENDBRANCH  60  63
ENDBRANCH  56  57
ENDBRANCH  40  56
ENDBRANCH  36  40
ENDBRANCH  35  37
ENDBRANCH   1  35
TORSDOF 27
REMARK  Name = ../refined-set-2016/2y5f/2y5f_pocket.pdb
REMARK  228 active torsions:
REMARK  status: ('A' for Active; 'I' for Inactive)
REMARK    1  A    between atoms: _1  and  _5
REMARK    2  A    between atoms: _5  and  _6
REMARK    3  A    between atoms: _5  and  _8
REMARK    4  A    between atoms: _8  and  _9
REMARK    5  A    between atoms: _12  and  _14
REMARK    6  A    between atoms: _14  and  _15
REMARK    7  A    between atoms: _14  and  _17
REMARK    8  A    between atoms: _20  and  _22
REMARK    9  A    between atoms: _22  and  _23
REMARK   10  A    between atoms: _22  and  _25
REMARK   11  A    between atoms: _25  and  _26
REMARK   12  A    between atoms: _32  and  _34
REMARK   13  A    between atoms: _34  and  _35
REMARK   14  A    between atoms: _34  and  _37
REMARK   15  A    between atoms: _39  and  _41
REMARK   16  A    between atoms: _41  and  _42
REMARK   17  A    between atoms: _41  and  _44
REMARK   18  A    between atoms: _44  and  _45
REMARK   19  A    between atoms: _50  and  _52
REMARK   20  A    between atoms: _52  and  _53
REMARK   21  A    between atoms: _52  and  _55
REMARK   22  A    between atoms: _55  and  _56
REMARK   23  A    between atoms: _56  and  _57
REMARK   24  A    between atoms: _62  and  _64
REMARK   25  A    between atoms: _64  and  _65
REMARK   26  A    between atoms: _64  and  _67
REMARK   27  A    between atoms: _67  and  _68
REMARK   28  A    between atoms: _74  and  _76
REMARK   29  A    between atoms: _76  and  _77
REMARK   30  A    between atoms: _76  and  _79
REMARK   31  A    between atoms: _79  and  _80
REMARK   32  A    between atoms: _83  and  _85
REMARK   33  A    between atoms: _85  and  _86
REMARK   34  A    between atoms: _85  and  _88
REMARK   35  A    between atoms: _88  and  _89
REMARK   36  A    between atoms: _89  and  _90
REMARK   37  A    between atoms: _90  and  _91
REMARK   38  A    between atoms: _91  and  _92
REMARK   39  A    between atoms: _96  and  _98
REMARK   40  A    between atoms: _98  and  _99
REMARK   41  A    between atoms: _98  and  _101
REMARK   42  A    between atoms: _101  and  _102
REMARK   43  A    between atoms: _102  and  _103
REMARK   44  A    between atoms: _106  and  _108
REMARK   45  A    between atoms: _108  and  _109
REMARK   46  A    between atoms: _108  and  _111
REMARK   47  A    between atoms: _111  and  _112
REMARK   48  A    between atoms: _115  and  _117
REMARK   49  A    between atoms: _117  and  _118
REMARK   50  A    between atoms: _117  and  _120
REMARK   51  A    between atoms: _120  and  _121
REMARK   52  A    between atoms: _126  and  _127
REMARK   53  A    between atoms: _129  and  _131
REMARK   54  A    between atoms: _131  and  _132
REMARK   55  A    between atoms: _131  and  _134
REMARK   56  A    between atoms: _134  and  _135
REMARK   57  A    between atoms: _138  and  _140
REMARK   58  A    between atoms: _140  and  _141
REMARK   59  A    between atoms: _140  and  _143
REMARK   60  A    between atoms: _143  and  _144
REMARK   61  A    between atoms: _147  and  _149
REMARK   62  A    between atoms: _149  and  _150
REMARK   63  A    between atoms: _149  and  _152
REMARK   64  A    between atoms: _155  and  _157
REMARK   65  A    between atoms: _157  and  _158
REMARK   66  A    between atoms: _157  and  _160
REMARK   67  A    between atoms: _160  and  _161
REMARK   68  A    between atoms: _161  and  _162
REMARK   69  A    between atoms: _162  and  _163
REMARK   70  A    between atoms: _172  and  _174
REMARK   71  A    between atoms: _174  and  _175
REMARK   72  A    between atoms: _174  and  _177
REMARK   73  A    between atoms: _177  and  _178
REMARK   74  A    between atoms: _183  and  _185
REMARK   75  A    between atoms: _185  and  _186
REMARK   76  A    between atoms: _185  and  _188
REMARK   77  A    between atoms: _188  and  _189
REMARK   78  A    between atoms: _189  and  _190
REMARK   79  A    between atoms: _193  and  _195
REMARK   80  A    between atoms: _195  and  _196
REMARK   81  A    between atoms: _195  and  _198
REMARK   82  A    between atoms: _198  and  _199
REMARK   83  A    between atoms: _199  and  _200
REMARK   84  A    between atoms: _200  and  _201
REMARK   85  A    between atoms: _201  and  _202
REMARK   86  A    between atoms: _206  and  _208
REMARK   87  A    between atoms: _208  and  _209
REMARK   88  A    between atoms: _211  and  _213
REMARK   89  A    between atoms: _213  and  _214
REMARK   90  A    between atoms: _213  and  _216
REMARK   91  A    between atoms: _219  and  _221
REMARK   92  A    between atoms: _221  and  _222
REMARK   93  A    between atoms: _221  and  _224
REMARK   94  A    between atoms: _224  and  _225
REMARK   95  A    between atoms: _227  and  _229
REMARK   96  A    between atoms: _229  and  _230
REMARK   97  A    between atoms: _229  and  _232
REMARK   98  A    between atoms: _232  and  _233
REMARK   99  A    between atoms: _235  and  _237
REMARK  100  A    between atoms: _237  and  _238
REMARK  101  A    between atoms: _237  and  _240
REMARK  102  A    between atoms: _240  and  _241
REMARK  103  A    between atoms: _247  and  _249
REMARK  104  A    between atoms: _249  and  _250
REMARK  105  A    between atoms: _249  and  _252
REMARK  106  A    between atoms: _252  and  _253
REMARK  107  A    between atoms: _256  and  _258
REMARK  108  A    between atoms: _258  and  _259
REMARK  109  A    between atoms: _258  and  _261
REMARK  110  A    between atoms: _261  and  _262
REMARK  111  A    between atoms: _265  and  _267
REMARK  112  A    between atoms: _267  and  _268
REMARK  113  A    between atoms: _267  and  _270
REMARK  114  A    between atoms: _270  and  _271
REMARK  115  A    between atoms: _271  and  _272
REMARK  116  A    between atoms: _274  and  _276
REMARK  117  A    between atoms: _276  and  _277
REMARK  118  A    between atoms: _276  and  _279
REMARK  119  A    between atoms: _279  and  _280
REMARK  120  A    between atoms: _286  and  _288
REMARK  121  A    between atoms: _288  and  _289
REMARK  122  A    between atoms: _288  and  _291
REMARK  123  A    between atoms: _293  and  _295
REMARK  124  A    between atoms: _295  and  _296
REMARK  125  A    between atoms: _299  and  _301
REMARK  126  A    between atoms: _301  and  _302
REMARK  127  A    between atoms: _304  and  _306
REMARK  128  A    between atoms: _306  and  _307
REMARK  129  A    between atoms: _306  and  _309
REMARK  130  A    between atoms: _309  and  _310
REMARK  131  A    between atoms: _310  and  _311
REMARK  132  A    between atoms: _314  and  _316
REMARK  133  A    between atoms: _316  and  _317
REMARK  134  A    between atoms: _316  and  _319
REMARK  135  A    between atoms: _319  and  _320
REMARK  136  A    between atoms: _323  and  _325
REMARK  137  A    between atoms: _325  and  _326
REMARK  138  A    between atoms: _329  and  _331
REMARK  139  A    between atoms: _331  and  _332
REMARK  140  A    between atoms: _331  and  _334
REMARK  141  A    between atoms: _334  and  _335
REMARK  142  A    between atoms: _335  and  _458
REMARK  143  A    between atoms: _336  and  _338
REMARK  144  A    between atoms: _338  and  _339
REMARK  145  A    between atoms: _338  and  _341
REMARK  146  A    between atoms: _341  and  _342
REMARK  147  A    between atoms: _342  and  _343
REMARK  148  A    between atoms: _348  and  _350
REMARK  149  A    between atoms: _350  and  _351
REMARK  150  A    between atoms: _353  and  _355
REMARK  151  A    between atoms: _355  and  _356
REMARK  152  A    between atoms: _355  and  _358
REMARK  153  A    between atoms: _358  and  _359
REMARK  154  A    between atoms: _362  and  _364
REMARK  155  A    between atoms: _364  and  _365
REMARK  156  A    between atoms: _364  and  _367
REMARK  157  A    between atoms: _367  and  _368
REMARK  158  A    between atoms: _370  and  _372
REMARK  159  A    between atoms: _372  and  _373
REMARK  160  A    between atoms: _375  and  _377
REMARK  161  A    between atoms: _377  and  _378
REMARK  162  A    between atoms: _380  and  _382
REMARK  163  A    between atoms: _382  and  _383
REMARK  164  A    between atoms: _382  and  _385
REMARK  165  A    between atoms: _385  and  _386
REMARK  166  A    between atoms: _391  and  _393
REMARK  167  A    between atoms: _393  and  _394
REMARK  168  A    between atoms: _393  and  _396
REMARK  169  A    between atoms: _396  and  _397
REMARK  170  A    between atoms: _400  and  _402
REMARK  171  A    between atoms: _402  and  _403
REMARK  172  A    between atoms: _402  and  _405
REMARK  173  A    between atoms: _408  and  _410
REMARK  174  A    between atoms: _410  and  _411
REMARK  175  A    between atoms: _410  and  _413
REMARK  176  A    between atoms: _413  and  _414
REMARK  177  A    between atoms: _416  and  _418
REMARK  178  A    between atoms: _418  and  _419
REMARK  179  A    between atoms: _418  and  _421
REMARK  180  A    between atoms: _421  and  _422
REMARK  181  A    between atoms: _432  and  _434
REMARK  182  A    between atoms: _434  and  _435
REMARK  183  A    between atoms: _437  and  _439
REMARK  184  A    between atoms: _439  and  _440
REMARK  185  A    between atoms: _439  and  _442
REMARK  186  A    between atoms: _442  and  _443
REMARK  187  A    between atoms: _443  and  _444
REMARK  188  A    between atoms: _447  and  _449
REMARK  189  A    between atoms: _449  and  _450
REMARK  190  A    between atoms: _452  and  _454
REMARK  191  A    between atoms: _454  and  _455
REMARK  192  A    between atoms: _454  and  _457
REMARK  193  A    between atoms: _457  and  _458
REMARK  194  A    between atoms: _459  and  _461
REMARK  195  A    between atoms: _461  and  _462
REMARK  196  A    between atoms: _465  and  _467
REMARK  197  A    between atoms: _467  and  _468
REMARK  198  A    between atoms: _467  and  _470
REMARK  199  A    between atoms: _470  and  _471
REMARK  200  A    between atoms: _471  and  _472
REMARK  201  A    between atoms: _472  and  _473
REMARK  202  A    between atoms: _482  and  _484
REMARK  203  A    between atoms: _484  and  _485
REMARK  204  A    between atoms: _484  and  _487
REMARK  205  A    between atoms: _487  and  _488
REMARK  206  A    between atoms: _488  and  _489
REMARK  207  A    between atoms: _489  and  _490
REMARK  208  A    between atoms: _490  and  _491
REMARK  209  A    between atoms: _495  and  _497
REMARK  210  A    between atoms: _497  and  _498
REMARK  211  A    between atoms: _497  and  _500
REMARK  212  A    between atoms: _500  and  _501
REMARK  213  A    between atoms: _506  and  _507
REMARK  214  A    between atoms: _509  and  _511
REMARK  215  A    between atoms: _511  and  _512
REMARK  216  A    between atoms: _514  and  _516
REMARK  217  A    between atoms: _516  and  _517
REMARK  218  A    between atoms: _516  and  _519
REMARK  219  A    between atoms: _519  and  _520
REMARK  220  A    between atoms: _523  and  _525
REMARK  221  A    between atoms: _525  and  _526
REMARK  222  A    between atoms: _525  and  _528
REMARK  223  A    between atoms: _528  and  _529
REMARK  224  A    between atoms: _534  and  _535
REMARK  225  A    between atoms: _537  and  _539
REMARK  226  A    between atoms: _539  and  _540
REMARK  227  A    between atoms: _539  and  _542
REMARK  228  A    between atoms: _542  and  _543
REMARK                            x       y       z     vdW  Elec       q    Type
REMARK                         _______ _______ _______ _____ _____    ______ ____
ROOT
ATOM      1  O   HOH     1       0.917  10.221  13.524  0.00  0.00    +0.000 OA
ENDROOT
TORSDOF 0
REMARK  Name = ../refined-set-2016/2y5f/2y5f_pocket.pdb
REMARK  228 active torsions:
REMARK  status: ('A' for Active; 'I' for Inactive)
REMARK    1  A    between atoms: _1  and  _5
REMARK    2  A    between atoms: _5  and  _6
REMARK    3  A    between atoms: _5  and  _8
REMARK    4  A    between atoms: _8  and  _9
REMARK    5  A    between atoms: _12  and  _14
REMARK    6  A    between atoms: _14  and  _15
REMARK    7  A    between atoms: _14  and  _17
REMARK    8  A    between atoms: _20  and  _22
REMARK    9  A    between atoms: _22  and  _23
REMARK   10  A    between atoms: _22  and  _25
REMARK   11  A    between atoms: _25  and  _26
REMARK   12  A    between atoms: _32  and  _34
REMARK   13  A    between atoms: _34  and  _35
REMARK   14  A    between atoms: _34  and  _37
REMARK   15  A    between atoms: _39  and  _41
REMARK   16  A    between atoms: _41  and  _42
REMARK   17  A    between atoms: _41  and  _44
REMARK   18  A    between atoms: _44  and  _45
REMARK   19  A    between atoms: _50  and  _52
REMARK   20  A    between atoms: _52  and  _53
REMARK   21  A    between atoms: _52  and  _55
REMARK   22  A    between atoms: _55  and  _56
REMARK   23  A    between atoms: _56  and  _57
REMARK   24  A    between atoms: _62  and  _64
REMARK   25  A    between atoms: _64  and  _65
REMARK   26  A    between atoms: _64  and  _67
REMARK   27  A    between atoms: _67  and  _68
REMARK   28  A    between atoms: _74  and  _76
REMARK   29  A    between atoms: _76  and  _77
REMARK   30  A    between atoms: _76  and  _79
REMARK   31  A    between atoms: _79  and  _80
REMARK   32  A    between atoms: _83  and  _85
REMARK   33  A    between atoms: _85  and  _86
REMARK   34  A    between atoms: _85  and  _88
REMARK   35  A    between atoms: _88  and  _89
REMARK   36  A    between atoms: _89  and  _90
REMARK   37  A    between atoms: _90  and  _91
REMARK   38  A    between atoms: _91  and  _92
REMARK   39  A    between atoms: _96  and  _98
REMARK   40  A    between atoms: _98  and  _99
REMARK   41  A    between atoms: _98  and  _101
REMARK   42  A    between atoms: _101  and  _102
REMARK   43  A    between atoms: _102  and  _103
REMARK   44  A    between atoms: _106  and  _108
REMARK   45  A    between atoms: _108  and  _109
REMARK   46  A    between atoms: _108  and  _111
REMARK   47  A    between atoms: _111  and  _112
REMARK   48  A    between atoms: _115  and  _117
REMARK   49  A    between atoms: _117  and  _118
REMARK   50  A    between atoms: _117  and  _120
REMARK   51  A    between atoms: _120  and  _121
REMARK   52  A    between atoms: _126  and  _127
REMARK   53  A    between atoms: _129  and  _131
REMARK   54  A    between atoms: _131  and  _132
REMARK   55  A    between atoms: _131  and  _134
REMARK   56  A    between atoms: _134  and  _135
REMARK   57  A    between atoms: _138  and  _140
REMARK   58  A    between atoms: _140  and  _141
REMARK   59  A    between atoms: _140  and  _143
REMARK   60  A    between atoms: _143  and  _144
REMARK   61  A    between atoms: _147  and  _149
REMARK   62  A    between atoms: _149  and  _150
REMARK   63  A    between atoms: _149  and  _152
REMARK   64  A    between atoms: _155  and  _157
REMARK   65  A    between atoms: _157  and  _158
REMARK   66  A    between atoms: _157  and  _160
REMARK   67  A    between atoms: _160  and  _161
REMARK   68  A    between atoms: _161  and  _162
REMARK   69  A    between atoms: _162  and  _163
REMARK   70  A    between atoms: _172  and  _174
REMARK   71  A    between atoms: _174  and  _175
REMARK   72  A    between atoms: _174  and  _177
REMARK   73  A    between atoms: _177  and  _178
REMARK   74  A    between atoms: _183  and  _185
REMARK   75  A    between atoms: _185  and  _186
REMARK   76  A    between atoms: _185  and  _188
REMARK   77  A    between atoms: _188  and  _189
REMARK   78  A    between atoms: _189  and  _190
REMARK   79  A    between atoms: _193  and  _195
REMARK   80  A    between atoms: _195  and  _196
REMARK   81  A    between atoms: _195  and  _198
REMARK   82  A    between atoms: _198  and  _199
REMARK   83  A    between atoms: _199  and  _200
REMARK   84  A    between atoms: _200  and  _201
REMARK   85  A    between atoms: _201  and  _202
REMARK   86  A    between atoms: _206  and  _208
REMARK   87  A    between atoms: _208  and  _209
REMARK   88  A    between atoms: _211  and  _213
REMARK   89  A    between atoms: _213  and  _214
REMARK   90  A    between atoms: _213  and  _216
REMARK   91  A    between atoms: _219  and  _221
REMARK   92  A    between atoms: _221  and  _222
REMARK   93  A    between atoms: _221  and  _224
REMARK   94  A    between atoms: _224  and  _225
REMARK   95  A    between atoms: _227  and  _229
REMARK   96  A    between atoms: _229  and  _230
REMARK   97  A    between atoms: _229  and  _232
REMARK   98  A    between atoms: _232  and  _233
REMARK   99  A    between atoms: _235  and  _237
REMARK  100  A    between atoms: _237  and  _238
REMARK  101  A    between atoms: _237  and  _240
REMARK  102  A    between atoms: _240  and  _241
REMARK  103  A    between atoms: _247  and  _249
REMARK  104  A    between atoms: _249  and  _250
REMARK  105  A    between atoms: _249  and  _252
REMARK  106  A    between atoms: _252  and  _253
REMARK  107  A    between atoms: _256  and  _258
REMARK  108  A    between atoms: _258  and  _259
REMARK  109  A    between atoms: _258  and  _261
REMARK  110  A    between atoms: _261  and  _262
REMARK  111  A    between atoms: _265  and  _267
REMARK  112  A    between atoms: _267  and  _268
REMARK  113  A    between atoms: _267  and  _270
REMARK  114  A    between atoms: _270  and  _271
REMARK  115  A    between atoms: _271  and  _272
REMARK  116  A    between atoms: _274  and  _276
REMARK  117  A    between atoms: _276  and  _277
REMARK  118  A    between atoms: _276  and  _279
REMARK  119  A    between atoms: _279  and  _280
REMARK  120  A    between atoms: _286  and  _288
REMARK  121  A    between atoms: _288  and  _289
REMARK  122  A    between atoms: _288  and  _291
REMARK  123  A    between atoms: _293  and  _295
REMARK  124  A    between atoms: _295  and  _296
REMARK  125  A    between atoms: _299  and  _301
REMARK  126  A    between atoms: _301  and  _302
REMARK  127  A    between atoms: _304  and  _306
REMARK  128  A    between atoms: _306  and  _307
REMARK  129  A    between atoms: _306  and  _309
REMARK  130  A    between atoms: _309  and  _310
REMARK  131  A    between atoms: _310  and  _311
REMARK  132  A    between atoms: _314  and  _316
REMARK  133  A    between atoms: _316  and  _317
REMARK  134  A    between atoms: _316  and  _319
REMARK  135  A    between atoms: _319  and  _320
REMARK  136  A    between atoms: _323  and  _325
REMARK  137  A    between atoms: _325  and  _326
REMARK  138  A    between atoms: _329  and  _331
REMARK  139  A    between atoms: _331  and  _332
REMARK  140  A    between atoms: _331  and  _334
REMARK  141  A    between atoms: _334  and  _335
REMARK  142  A    between atoms: _335  and  _458
REMARK  143  A    between atoms: _336  and  _338
REMARK  144  A    between atoms: _338  and  _339
REMARK  145  A    between atoms: _338  and  _341
REMARK  146  A    between atoms: _341  and  _342
REMARK  147  A    between atoms: _342  and  _343
REMARK  148  A    between atoms: _348  and  _350
REMARK  149  A    between atoms: _350  and  _351
REMARK  150  A    between atoms: _353  and  _355
REMARK  151  A    between atoms: _355  and  _356
REMARK  152  A    between atoms: _355  and  _358
REMARK  153  A    between atoms: _358  and  _359
REMARK  154  A    between atoms: _362  and  _364
REMARK  155  A    between atoms: _364  and  _365
REMARK  156  A    between atoms: _364  and  _367
REMARK  157  A    between atoms: _367  and  _368
REMARK  158  A    between atoms: _370  and  _372
REMARK  159  A    between atoms: _372  and  _373
REMARK  160  A    between atoms: _375  and  _377
REMARK  161  A    between atoms: _377  and  _378
REMARK  162  A    between atoms: _380  and  _382
REMARK  163  A    between atoms: _382  and  _383
REMARK  164  A    between atoms: _382  and  _385
REMARK  165  A    between atoms: _385  and  _386
REMARK  166  A    between atoms: _391  and  _393
REMARK  167  A    between atoms: _393  and  _394
REMARK  168  A    between atoms: _393  and  _396
REMARK  169  A    between atoms: _396  and  _397
REMARK  170  A    between atoms: _400  and  _402
REMARK  171  A    between atoms: _402  and  _403
REMARK  172  A    between atoms: _402  and  _405
REMARK  173  A    between atoms: _408  and  _410
REMARK  174  A    between atoms: _410  and  _411
REMARK  175  A    between atoms: _410  and  _413
REMARK  176  A    between atoms: _413  and  _414
REMARK  177  A    between atoms: _416  and  _418
REMARK  178  A    between atoms: _418  and  _419
REMARK  179  A    between atoms: _418  and  _421
REMARK  180  A    between atoms: _421  and  _422
REMARK  181  A    between atoms: _432  and  _434
REMARK  182  A    between atoms: _434  and  _435
REMARK  183  A    between atoms: _437  and  _439
REMARK  184  A    between atoms: _439  and  _440
REMARK  185  A    between atoms: _439  and  _442
REMARK  186  A    between atoms: _442  and  _443
REMARK  187  A    between atoms: _443  and  _444
REMARK  188  A    between atoms: _447  and  _449
REMARK  189  A    between atoms: _449  and  _450
REMARK  190  A    between atoms: _452  and  _454
REMARK  191  A    between atoms: _454  and  _455
REMARK  192  A    between atoms: _454  and  _457
REMARK  193  A    between atoms: _457  and  _458
REMARK  194  A    between atoms: _459  and  _461
REMARK  195  A    between atoms: _461  and  _462
REMARK  196  A    between atoms: _465  and  _467
REMARK  197  A    between atoms: _467  and  _468
REMARK  198  A    between atoms: _467  and  _470
REMARK  199  A    between atoms: _470  and  _471
REMARK  200  A    between atoms: _471  and  _472
REMARK  201  A    between atoms: _472  and  _473
REMARK  202  A    between atoms: _482  and  _484
REMARK  203  A    between atoms: _484  and  _485
REMARK  204  A    between atoms: _484  and  _487
REMARK  205  A    between atoms: _487  and  _488
REMARK  206  A    between atoms: _488  and  _489
REMARK  207  A    between atoms: _489  and  _490
REMARK  208  A    between atoms: _490  and  _491
REMARK  209  A    between atoms: _495  and  _497
REMARK  210  A    between atoms: _497  and  _498
REMARK  211  A    between atoms: _497  and  _500
REMARK  212  A    between atoms: _500  and  _501
REMARK  213  A    between atoms: _506  and  _507
REMARK  214  A    between atoms: _509  and  _511
REMARK  215  A    between atoms: _511  and  _512
REMARK  216  A    between atoms: _514  and  _516
REMARK  217  A    between atoms: _516  and  _517
REMARK  218  A    between atoms: _516  and  _519
REMARK  219  A    between atoms: _519  and  _520
REMARK  220  A    between atoms: _523  and  _525
REMARK  221  A    between atoms: _525  and  _526
REMARK  222  A    between atoms: _525  and  _528
REMARK  223  A    between atoms: _528  and  _529
REMARK  224  A    between atoms: _534  and  _535
REMARK  225  A    between atoms: _537  and  _539
REMARK  226  A    between atoms: _539  and  _540
REMARK  227  A    between atoms: _539  and  _542
REMARK  228  A    between atoms: _542  and  _543
REMARK                            x       y       z     vdW  Elec       q    Type
REMARK                         _______ _______ _______ _____ _____    ______ ____
ROOT
ATOM      1  O   HOH     1       2.107  12.310  21.010  0.00  0.00    +0.000 OA
ENDROOT
TORSDOF 0
REMARK  Name = ../refined-set-2016/2y5f/2y5f_pocket.pdb
REMARK  228 active torsions:
REMARK  status: ('A' for Active; 'I' for Inactive)
REMARK    1  A    between atoms: _1  and  _5
REMARK    2  A    between atoms: _5  and  _6
REMARK    3  A    between atoms: _5  and  _8
REMARK    4  A    between atoms: _8  and  _9
REMARK    5  A    between atoms: _12  and  _14
REMARK    6  A    between atoms: _14  and  _15
REMARK    7  A    between atoms: _14  and  _17
REMARK    8  A    between atoms: _20  and  _22
REMARK    9  A    between atoms: _22  and  _23
REMARK   10  A    between atoms: _22  and  _25
REMARK   11  A    between atoms: _25  and  _26
REMARK   12  A    between atoms: _32  and  _34
REMARK   13  A    between atoms: _34  and  _35
REMARK   14  A    between atoms: _34  and  _37
REMARK   15  A    between atoms: _39  and  _41
REMARK   16  A    between atoms: _41  and  _42
REMARK   17  A    between atoms: _41  and  _44
REMARK   18  A    between atoms: _44  and  _45
REMARK   19  A    between atoms: _50  and  _52
REMARK   20  A    between atoms: _52  and  _53
REMARK   21  A    between atoms: _52  and  _55
REMARK   22  A    between atoms: _55  and  _56
REMARK   23  A    between atoms: _56  and  _57
REMARK   24  A    between atoms: _62  and  _64
REMARK   25  A    between atoms: _64  and  _65
REMARK   26  A    between atoms: _64  and  _67
REMARK   27  A    between atoms: _67  and  _68
REMARK   28  A    between atoms: _74  and  _76
REMARK   29  A    between atoms: _76  and  _77
REMARK   30  A    between atoms: _76  and  _79
REMARK   31  A    between atoms: _79  and  _80
REMARK   32  A    between atoms: _83  and  _85
REMARK   33  A    between atoms: _85  and  _86
REMARK   34  A    between atoms: _85  and  _88
REMARK   35  A    between atoms: _88  and  _89
REMARK   36  A    between atoms: _89  and  _90
REMARK   37  A    between atoms: _90  and  _91
REMARK   38  A    between atoms: _91  and  _92
REMARK   39  A    between atoms: _96  and  _98
REMARK   40  A    between atoms: _98  and  _99
REMARK   41  A    between atoms: _98  and  _101
REMARK   42  A    between atoms: _101  and  _102
REMARK   43  A    between atoms: _102  and  _103
REMARK   44  A    between atoms: _106  and  _108
REMARK   45  A    between atoms: _108  and  _109
REMARK   46  A    between atoms: _108  and  _111
REMARK   47  A    between atoms: _111  and  _112
REMARK   48  A    between atoms: _115  and  _117
REMARK   49  A    between atoms: _117  and  _118
REMARK   50  A    between atoms: _117  and  _120
REMARK   51  A    between atoms: _120  and  _121
REMARK   52  A    between atoms: _126  and  _127
REMARK   53  A    between atoms: _129  and  _131
REMARK   54  A    between atoms: _131  and  _132
REMARK   55  A    between atoms: _131  and  _134
REMARK   56  A    between atoms: _134  and  _135
REMARK   57  A    between atoms: _138  and  _140
REMARK   58  A    between atoms: _140  and  _141
REMARK   59  A    between atoms: _140  and  _143
REMARK   60  A    between atoms: _143  and  _144
REMARK   61  A    between atoms: _147  and  _149
REMARK   62  A    between atoms: _149  and  _150
REMARK   63  A    between atoms: _149  and  _152
REMARK   64  A    between atoms: _155  and  _157
REMARK   65  A    between atoms: _157  and  _158
REMARK   66  A    between atoms: _157  and  _160
REMARK   67  A    between atoms: _160  and  _161
REMARK   68  A    between atoms: _161  and  _162
REMARK   69  A    between atoms: _162  and  _163
REMARK   70  A    between atoms: _172  and  _174
REMARK   71  A    between atoms: _174  and  _175
REMARK   72  A    between atoms: _174  and  _177
REMARK   73  A    between atoms: _177  and  _178
REMARK   74  A    between atoms: _183  and  _185
REMARK   75  A    between atoms: _185  and  _186
REMARK   76  A    between atoms: _185  and  _188
REMARK   77  A    between atoms: _188  and  _189
REMARK   78  A    between atoms: _189  and  _190
REMARK   79  A    between atoms: _193  and  _195
REMARK   80  A    between atoms: _195  and  _196
REMARK   81  A    between atoms: _195  and  _198
REMARK   82  A    between atoms: _198  and  _199
REMARK   83  A    between atoms: _199  and  _200
REMARK   84  A    between atoms: _200  and  _201
REMARK   85  A    between atoms: _201  and  _202
REMARK   86  A    between atoms: _206  and  _208
REMARK   87  A    between atoms: _208  and  _209
REMARK   88  A    between atoms: _211  and  _213
REMARK   89  A    between atoms: _213  and  _214
REMARK   90  A    between atoms: _213  and  _216
REMARK   91  A    between atoms: _219  and  _221
REMARK   92  A    between atoms: _221  and  _222
REMARK   93  A    between atoms: _221  and  _224
REMARK   94  A    between atoms: _224  and  _225
REMARK   95  A    between atoms: _227  and  _229
REMARK   96  A    between atoms: _229  and  _230
REMARK   97  A    between atoms: _229  and  _232
REMARK   98  A    between atoms: _232  and  _233
REMARK   99  A    between atoms: _235  and  _237
REMARK  100  A    between atoms: _237  and  _238
REMARK  101  A    between atoms: _237  and  _240
REMARK  102  A    between atoms: _240  and  _241
REMARK  103  A    between atoms: _247  and  _249
REMARK  104  A    between atoms: _249  and  _250
REMARK  105  A    between atoms: _249  and  _252
REMARK  106  A    between atoms: _252  and  _253
REMARK  107  A    between atoms: _256  and  _258
REMARK  108  A    between atoms: _258  and  _259
REMARK  109  A    between atoms: _258  and  _261
REMARK  110  A    between atoms: _261  and  _262
REMARK  111  A    between atoms: _265  and  _267
REMARK  112  A    between atoms: _267  and  _268
REMARK  113  A    between atoms: _267  and  _270
REMARK  114  A    between atoms: _270  and  _271
REMARK  115  A    between atoms: _271  and  _272
REMARK  116  A    between atoms: _274  and  _276
REMARK  117  A    between atoms: _276  and  _277
REMARK  118  A    between atoms: _276  and  _279
REMARK  119  A    between atoms: _279  and  _280
REMARK  120  A    between atoms: _286  and  _288
REMARK  121  A    between atoms: _288  and  _289
REMARK  122  A    between atoms: _288  and  _291
REMARK  123  A    between atoms: _293  and  _295
REMARK  124  A    between atoms: _295  and  _296
REMARK  125  A    between atoms: _299  and  _301
REMARK  126  A    between atoms: _301  and  _302
REMARK  127  A    between atoms: _304  and  _306
REMARK  128  A    between atoms: _306  and  _307
REMARK  129  A    between atoms: _306  and  _309
REMARK  130  A    between atoms: _309  and  _310
REMARK  131  A    between atoms: _310  and  _311
REMARK  132  A    between atoms: _314  and  _316
REMARK  133  A    between atoms: _316  and  _317
REMARK  134  A    between atoms: _316  and  _319
REMARK  135  A    between atoms: _319  and  _320
REMARK  136  A    between atoms: _323  and  _325
REMARK  137  A    between atoms: _325  and  _326
REMARK  138  A    between atoms: _329  and  _331
REMARK  139  A    between atoms: _331  and  _332
REMARK  140  A    between atoms: _331  and  _334
REMARK  141  A    between atoms: _334  and  _335
REMARK  142  A    between atoms: _335  and  _458
REMARK  143  A    between atoms: _336  and  _338
REMARK  144  A    between atoms: _338  and  _339
REMARK  145  A    between atoms: _338  and  _341
REMARK  146  A    between atoms: _341  and  _342
REMARK  147  A    between atoms: _342  and  _343
REMARK  148  A    between atoms: _348  and  _350
REMARK  149  A    between atoms: _350  and  _351
REMARK  150  A    between atoms: _353  and  _355
REMARK  151  A    between atoms: _355  and  _356
REMARK  152  A    between atoms: _355  and  _358
REMARK  153  A    between atoms: _358  and  _359
REMARK  154  A    between atoms: _362  and  _364
REMARK  155  A    between atoms: _364  and  _365
REMARK  156  A    between atoms: _364  and  _367
REMARK  157  A    between atoms: _367  and  _368
REMARK  158  A    between atoms: _370  and  _372
REMARK  159  A    between atoms: _372  and  _373
REMARK  160  A    between atoms: _375  and  _377
REMARK  161  A    between atoms: _377  and  _378
REMARK  162  A    between atoms: _380  and  _382
REMARK  163  A    between atoms: _382  and  _383
REMARK  164  A    between atoms: _382  and  _385
REMARK  165  A    between atoms: _385  and  _386
REMARK  166  A    between atoms: _391  and  _393
REMARK  167  A    between atoms: _393  and  _394
REMARK  168  A    between atoms: _393  and  _396
REMARK  169  A    between atoms: _396  and  _397
REMARK  170  A    between atoms: _400  and  _402
REMARK  171  A    between atoms: _402  and  _403
REMARK  172  A    between atoms: _402  and  _405
REMARK  173  A    between atoms: _408  and  _410
REMARK  174  A    between atoms: _410  and  _411
REMARK  175  A    between atoms: _410  and  _413
REMARK  176  A    between atoms: _413  and  _414
REMARK  177  A    between atoms: _416  and  _418
REMARK  178  A    between atoms: _418  and  _419
REMARK  179  A    between atoms: _418  and  _421
REMARK  180  A    between atoms: _421  and  _422
REMARK  181  A    between atoms: _432  and  _434
REMARK  182  A    between atoms: _434  and  _435
REMARK  183  A    between atoms: _437  and  _439
REMARK  184  A    between atoms: _439  and  _440
REMARK  185  A    between atoms: _439  and  _442
REMARK  186  A    between atoms: _442  and  _443
REMARK  187  A    between atoms: _443  and  _444
REMARK  188  A    between atoms: _447  and  _449
REMARK  189  A    between atoms: _449  and  _450
REMARK  190  A    between atoms: _452  and  _454
REMARK  191  A    between atoms: _454  and  _455
REMARK  192  A    between atoms: _454  and  _457
REMARK  193  A    between atoms: _457  and  _458
REMARK  194  A    between atoms: _459  and  _461
REMARK  195  A    between atoms: _461  and  _462
REMARK  196  A    between atoms: _465  and  _467
REMARK  197  A    between atoms: _467  and  _468
REMARK  198  A    between atoms: _467  and  _470
REMARK  199  A    between atoms: _470  and  _471
REMARK  200  A    between atoms: _471  and  _472
REMARK  201  A    between atoms: _472  and  _473
REMARK  202  A    between atoms: _482  and  _484
REMARK  203  A    between atoms: _484  and  _485
REMARK  204  A    between atoms: _484  and  _487
REMARK  205  A    between atoms: _487  and  _488
REMARK  206  A    between atoms: _488  and  _489
REMARK  207  A    between atoms: _489  and  _490
REMARK  208  A    between atoms: _490  and  _491
REMARK  209  A    between atoms: _495  and  _497
REMARK  210  A    between atoms: _497  and  _498
REMARK  211  A    between atoms: _497  and  _500
REMARK  212  A    between atoms: _500  and  _501
REMARK  213  A    between atoms: _506  and  _507
REMARK  214  A    between atoms: _509  and  _511
REMARK  215  A    between atoms: _511  and  _512
REMARK  216  A    between atoms: _514  and  _516
REMARK  217  A    between atoms: _516  and  _517
REMARK  218  A    between atoms: _516  and  _519
REMARK  219  A    between atoms: _519  and  _520
REMARK  220  A    between atoms: _523  and  _525
REMARK  221  A    between atoms: _525  and  _526
REMARK  222  A    between atoms: _525  and  _528
REMARK  223  A    between atoms: _528  and  _529
REMARK  224  A    between atoms: _534  and  _535
REMARK  225  A    between atoms: _537  and  _539
REMARK  226  A    between atoms: _539  and  _540
REMARK  227  A    between atoms: _539  and  _542
REMARK  228  A    between atoms: _542  and  _543
REMARK                            x       y       z     vdW  Elec       q    Type
REMARK                         _______ _______ _______ _____ _____    ______ ____
ROOT
ATOM      1  O   HOH     1       3.468  15.375  20.833  0.00  0.00    +0.000 OA
ENDROOT
TORSDOF 0
REMARK  Name = ../refined-set-2016/2y5f/2y5f_pocket.pdb
REMARK  228 active torsions:
REMARK  status: ('A' for Active; 'I' for Inactive)
REMARK    1  A    between atoms: _1  and  _5
REMARK    2  A    between atoms: _5  and  _6
REMARK    3  A    between atoms: _5  and  _8
REMARK    4  A    between atoms: _8  and  _9
REMARK    5  A    between atoms: _12  and  _14
REMARK    6  A    between atoms: _14  and  _15
REMARK    7  A    between atoms: _14  and  _17
REMARK    8  A    between atoms: _20  and  _22
REMARK    9  A    between atoms: _22  and  _23
REMARK   10  A    between atoms: _22  and  _25
REMARK   11  A    between atoms: _25  and  _26
REMARK   12  A    between atoms: _32  and  _34
REMARK   13  A    between atoms: _34  and  _35
REMARK   14  A    between atoms: _34  and  _37
REMARK   15  A    between atoms: _39  and  _41
REMARK   16  A    between atoms: _41  and  _42
REMARK   17  A    between atoms: _41  and  _44
REMARK   18  A    between atoms: _44  and  _45
REMARK   19  A    between atoms: _50  and  _52
REMARK   20  A    between atoms: _52  and  _53
REMARK   21  A    between atoms: _52  and  _55
REMARK   22  A    between atoms: _55  and  _56
REMARK   23  A    between atoms: _56  and  _57
REMARK   24  A    between atoms: _62  and  _64
REMARK   25  A    between atoms: _64  and  _65
REMARK   26  A    between atoms: _64  and  _67
REMARK   27  A    between atoms: _67  and  _68
REMARK   28  A    between atoms: _74  and  _76
REMARK   29  A    between atoms: _76  and  _77
REMARK   30  A    between atoms: _76  and  _79
REMARK   31  A    between atoms: _79  and  _80
REMARK   32  A    between atoms: _83  and  _85
REMARK   33  A    between atoms: _85  and  _86
REMARK   34  A    between atoms: _85  and  _88
REMARK   35  A    between atoms: _88  and  _89
REMARK   36  A    between atoms: _89  and  _90
REMARK   37  A    between atoms: _90  and  _91
REMARK   38  A    between atoms: _91  and  _92
REMARK   39  A    between atoms: _96  and  _98
REMARK   40  A    between atoms: _98  and  _99
REMARK   41  A    between atoms: _98  and  _101
REMARK   42  A    between atoms: _101  and  _102
REMARK   43  A    between atoms: _102  and  _103
REMARK   44  A    between atoms: _106  and  _108
REMARK   45  A    between atoms: _108  and  _109
REMARK   46  A    between atoms: _108  and  _111
REMARK   47  A    between atoms: _111  and  _112
REMARK   48  A    between atoms: _115  and  _117
REMARK   49  A    between atoms: _117  and  _118
REMARK   50  A    between atoms: _117  and  _120
REMARK   51  A    between atoms: _120  and  _121
REMARK   52  A    between atoms: _126  and  _127
REMARK   53  A    between atoms: _129  and  _131
REMARK   54  A    between atoms: _131  and  _132
REMARK   55  A    between atoms: _131  and  _134
REMARK   56  A    between atoms: _134  and  _135
REMARK   57  A    between atoms: _138  and  _140
REMARK   58  A    between atoms: _140  and  _141
REMARK   59  A    between atoms: _140  and  _143
REMARK   60  A    between atoms: _143  and  _144
REMARK   61  A    between atoms: _147  and  _149
REMARK   62  A    between atoms: _149  and  _150
REMARK   63  A    between atoms: _149  and  _152
REMARK   64  A    between atoms: _155  and  _157
REMARK   65  A    between atoms: _157  and  _158
REMARK   66  A    between atoms: _157  and  _160
REMARK   67  A    between atoms: _160  and  _161
REMARK   68  A    between atoms: _161  and  _162
REMARK   69  A    between atoms: _162  and  _163
REMARK   70  A    between atoms: _172  and  _174
REMARK   71  A    between atoms: _174  and  _175
REMARK   72  A    between atoms: _174  and  _177
REMARK   73  A    between atoms: _177  and  _178
REMARK   74  A    between atoms: _183  and  _185
REMARK   75  A    between atoms: _185  and  _186
REMARK   76  A    between atoms: _185  and  _188
REMARK   77  A    between atoms: _188  and  _189
REMARK   78  A    between atoms: _189  and  _190
REMARK   79  A    between atoms: _193  and  _195
REMARK   80  A    between atoms: _195  and  _196
REMARK   81  A    between atoms: _195  and  _198
REMARK   82  A    between atoms: _198  and  _199
REMARK   83  A    between atoms: _199  and  _200
REMARK   84  A    between atoms: _200  and  _201
REMARK   85  A    between atoms: _201  and  _202
REMARK   86  A    between atoms: _206  and  _208
REMARK   87  A    between atoms: _208  and  _209
REMARK   88  A    between atoms: _211  and  _213
REMARK   89  A    between atoms: _213  and  _214
REMARK   90  A    between atoms: _213  and  _216
REMARK   91  A    between atoms: _219  and  _221
REMARK   92  A    between atoms: _221  and  _222
REMARK   93  A    between atoms: _221  and  _224
REMARK   94  A    between atoms: _224  and  _225
REMARK   95  A    between atoms: _227  and  _229
REMARK   96  A    between atoms: _229  and  _230
REMARK   97  A    between atoms: _229  and  _232
REMARK   98  A    between atoms: _232  and  _233
REMARK   99  A    between atoms: _235  and  _237
REMARK  100  A    between atoms: _237  and  _238
REMARK  101  A    between atoms: _237  and  _240
REMARK  102  A    between atoms: _240  and  _241
REMARK  103  A    between atoms: _247  and  _249
REMARK  104  A    between atoms: _249  and  _250
REMARK  105  A    between atoms: _249  and  _252
REMARK  106  A    between atoms: _252  and  _253
REMARK  107  A    between atoms: _256  and  _258
REMARK  108  A    between atoms: _258  and  _259
REMARK  109  A    between atoms: _258  and  _261
REMARK  110  A    between atoms: _261  and  _262
REMARK  111  A    between atoms: _265  and  _267
REMARK  112  A    between atoms: _267  and  _268
REMARK  113  A    between atoms: _267  and  _270
REMARK  114  A    between atoms: _270  and  _271
REMARK  115  A    between atoms: _271  and  _272
REMARK  116  A    between atoms: _274  and  _276
REMARK  117  A    between atoms: _276  and  _277
REMARK  118  A    between atoms: _276  and  _279
REMARK  119  A    between atoms: _279  and  _280
REMARK  120  A    between atoms: _286  and  _288
REMARK  121  A    between atoms: _288  and  _289
REMARK  122  A    between atoms: _288  and  _291
REMARK  123  A    between atoms: _293  and  _295
REMARK  124  A    between atoms: _295  and  _296
REMARK  125  A    between atoms: _299  and  _301
REMARK  126  A    between atoms: _301  and  _302
REMARK  127  A    between atoms: _304  and  _306
REMARK  128  A    between atoms: _306  and  _307
REMARK  129  A    between atoms: _306  and  _309
REMARK  130  A    between atoms: _309  and  _310
REMARK  131  A    between atoms: _310  and  _311
REMARK  132  A    between atoms: _314  and  _316
REMARK  133  A    between atoms: _316  and  _317
REMARK  134  A    between atoms: _316  and  _319
REMARK  135  A    between atoms: _319  and  _320
REMARK  136  A    between atoms: _323  and  _325
REMARK  137  A    between atoms: _325  and  _326
REMARK  138  A    between atoms: _329  and  _331
REMARK  139  A    between atoms: _331  and  _332
REMARK  140  A    between atoms: _331  and  _334
REMARK  141  A    between atoms: _334  and  _335
REMARK  142  A    between atoms: _335  and  _458
REMARK  143  A    between atoms: _336  and  _338
REMARK  144  A    between atoms: _338  and  _339
REMARK  145  A    between atoms: _338  and  _341
REMARK  146  A    between atoms: _341  and  _342
REMARK  147  A    between atoms: _342  and  _343
REMARK  148  A    between atoms: _348  and  _350
REMARK  149  A    between atoms: _350  and  _351
REMARK  150  A    between atoms: _353  and  _355
REMARK  151  A    between atoms: _355  and  _356
REMARK  152  A    between atoms: _355  and  _358
REMARK  153  A    between atoms: _358  and  _359
REMARK  154  A    between atoms: _362  and  _364
REMARK  155  A    between atoms: _364  and  _365
REMARK  156  A    between atoms: _364  and  _367
REMARK  157  A    between atoms: _367  and  _368
REMARK  158  A    between atoms: _370  and  _372
REMARK  159  A    between atoms: _372  and  _373
REMARK  160  A    between atoms: _375  and  _377
REMARK  161  A    between atoms: _377  and  _378
REMARK  162  A    between atoms: _380  and  _382
REMARK  163  A    between atoms: _382  and  _383
REMARK  164  A    between atoms: _382  and  _385
REMARK  165  A    between atoms: _385  and  _386
REMARK  166  A    between atoms: _391  and  _393
REMARK  167  A    between atoms: _393  and  _394
REMARK  168  A    between atoms: _393  and  _396
REMARK  169  A    between atoms: _396  and  _397
REMARK  170  A    between atoms: _400  and  _402
REMARK  171  A    between atoms: _402  and  _403
REMARK  172  A    between atoms: _402  and  _405
REMARK  173  A    between atoms: _408  and  _410
REMARK  174  A    between atoms: _410  and  _411
REMARK  175  A    between atoms: _410  and  _413
REMARK  176  A    between atoms: _413  and  _414
REMARK  177  A    between atoms: _416  and  _418
REMARK  178  A    between atoms: _418  and  _419
REMARK  179  A    between atoms: _418  and  _421
REMARK  180  A    between atoms: _421  and  _422
REMARK  181  A    between atoms: _432  and  _434
REMARK  182  A    between atoms: _434  and  _435
REMARK  183  A    between atoms: _437  and  _439
REMARK  184  A    between atoms: _439  and  _440
REMARK  185  A    between atoms: _439  and  _442
REMARK  186  A    between atoms: _442  and  _443
REMARK  187  A    between atoms: _443  and  _444
REMARK  188  A    between atoms: _447  and  _449
REMARK  189  A    between atoms: _449  and  _450
REMARK  190  A    between atoms: _452  and  _454
REMARK  191  A    between atoms: _454  and  _455
REMARK  192  A    between atoms: _454  and  _457
REMARK  193  A    between atoms: _457  and  _458
REMARK  194  A    between atoms: _459  and  _461
REMARK  195  A    between atoms: _461  and  _462
REMARK  196  A    between atoms: _465  and  _467
REMARK  197  A    between atoms: _467  and  _468
REMARK  198  A    between atoms: _467  and  _470
REMARK  199  A    between atoms: _470  and  _471
REMARK  200  A    between atoms: _471  and  _472
REMARK  201  A    between atoms: _472  and  _473
REMARK  202  A    between atoms: _482  and  _484
REMARK  203  A    between atoms: _484  and  _485
REMARK  204  A    between atoms: _484  and  _487
REMARK  205  A    between atoms: _487  and  _488
REMARK  206  A    between atoms: _488  and  _489
REMARK  207  A    between atoms: _489  and  _490
REMARK  208  A    between atoms: _490  and  _491
REMARK  209  A    between atoms: _495  and  _497
REMARK  210  A    between atoms: _497  and  _498
REMARK  211  A    between atoms: _497  and  _500
REMARK  212  A    between atoms: _500  and  _501
REMARK  213  A    between atoms: _506  and  _507
REMARK  214  A    between atoms: _509  and  _511
REMARK  215  A    between atoms: _511  and  _512
REMARK  216  A    between atoms: _514  and  _516
REMARK  217  A    between atoms: _516  and  _517
REMARK  218  A    between atoms: _516  and  _519
REMARK  219  A    between atoms: _519  and  _520
REMARK  220  A    between atoms: _523  and  _525
REMARK  221  A    between atoms: _525  and  _526
REMARK  222  A    between atoms: _525  and  _528
REMARK  223  A    between atoms: _528  and  _529
REMARK  224  A    between atoms: _534  and  _535
REMARK  225  A    between atoms: _537  and  _539
REMARK  226  A    between atoms: _539  and  _540
REMARK  227  A    between atoms: _539  and  _542
REMARK  228  A    between atoms: _542  and  _543
REMARK                            x       y       z     vdW  Elec       q    Type
REMARK                         _______ _______ _______ _____ _____    ______ ____
ROOT
ATOM      1  O   HOH     1      -8.813   3.435  15.787  0.00  0.00    +0.000 OA
ENDROOT
TORSDOF 0
REMARK  Name = ../refined-set-2016/2y5f/2y5f_pocket.pdb
REMARK  228 active torsions:
REMARK  status: ('A' for Active; 'I' for Inactive)
REMARK    1  A    between atoms: _1  and  _5
REMARK    2  A    between atoms: _5  and  _6
REMARK    3  A    between atoms: _5  and  _8
REMARK    4  A    between atoms: _8  and  _9
REMARK    5  A    between atoms: _12  and  _14
REMARK    6  A    between atoms: _14  and  _15
REMARK    7  A    between atoms: _14  and  _17
REMARK    8  A    between atoms: _20  and  _22
REMARK    9  A    between atoms: _22  and  _23
REMARK   10  A    between atoms: _22  and  _25
REMARK   11  A    between atoms: _25  and  _26
REMARK   12  A    between atoms: _32  and  _34
REMARK   13  A    between atoms: _34  and  _35
REMARK   14  A    between atoms: _34  and  _37
REMARK   15  A    between atoms: _39  and  _41
REMARK   16  A    between atoms: _41  and  _42
REMARK   17  A    between atoms: _41  and  _44
REMARK   18  A    between atoms: _44  and  _45
REMARK   19  A    between atoms: _50  and  _52
REMARK   20  A    between atoms: _52  and  _53
REMARK   21  A    between atoms: _52  and  _55
REMARK   22  A    between atoms: _55  and  _56
REMARK   23  A    between atoms: _56  and  _57
REMARK   24  A    between atoms: _62  and  _64
REMARK   25  A    between atoms: _64  and  _65
REMARK   26  A    between atoms: _64  and  _67
REMARK   27  A    between atoms: _67  and  _68
REMARK   28  A    between atoms: _74  and  _76
REMARK   29  A    between atoms: _76  and  _77
REMARK   30  A    between atoms: _76  and  _79
REMARK   31  A    between atoms: _79  and  _80
REMARK   32  A    between atoms: _83  and  _85
REMARK   33  A    between atoms: _85  and  _86
REMARK   34  A    between atoms: _85  and  _88
REMARK   35  A    between atoms: _88  and  _89
REMARK   36  A    between atoms: _89  and  _90
REMARK   37  A    between atoms: _90  and  _91
REMARK   38  A    between atoms: _91  and  _92
REMARK   39  A    between atoms: _96  and  _98
REMARK   40  A    between atoms: _98  and  _99
REMARK   41  A    between atoms: _98  and  _101
REMARK   42  A    between atoms: _101  and  _102
REMARK   43  A    between atoms: _102  and  _103
REMARK   44  A    between atoms: _106  and  _108
REMARK   45  A    between atoms: _108  and  _109
REMARK   46  A    between atoms: _108  and  _111
REMARK   47  A    between atoms: _111  and  _112
REMARK   48  A    between atoms: _115  and  _117
REMARK   49  A    between atoms: _117  and  _118
REMARK   50  A    between atoms: _117  and  _120
REMARK   51  A    between atoms: _120  and  _121
REMARK   52  A    between atoms: _126  and  _127
REMARK   53  A    between atoms: _129  and  _131
REMARK   54  A    between atoms: _131  and  _132
REMARK   55  A    between atoms: _131  and  _134
REMARK   56  A    between atoms: _134  and  _135
REMARK   57  A    between atoms: _138  and  _140
REMARK   58  A    between atoms: _140  and  _141
REMARK   59  A    between atoms: _140  and  _143
REMARK   60  A    between atoms: _143  and  _144
REMARK   61  A    between atoms: _147  and  _149
REMARK   62  A    between atoms: _149  and  _150
REMARK   63  A    between atoms: _149  and  _152
REMARK   64  A    between atoms: _155  and  _157
REMARK   65  A    between atoms: _157  and  _158
REMARK   66  A    between atoms: _157  and  _160
REMARK   67  A    between atoms: _160  and  _161
REMARK   68  A    between atoms: _161  and  _162
REMARK   69  A    between atoms: _162  and  _163
REMARK   70  A    between atoms: _172  and  _174
REMARK   71  A    between atoms: _174  and  _175
REMARK   72  A    between atoms: _174  and  _177
REMARK   73  A    between atoms: _177  and  _178
REMARK   74  A    between atoms: _183  and  _185
REMARK   75  A    between atoms: _185  and  _186
REMARK   76  A    between atoms: _185  and  _188
REMARK   77  A    between atoms: _188  and  _189
REMARK   78  A    between atoms: _189  and  _190
REMARK   79  A    between atoms: _193  and  _195
REMARK   80  A    between atoms: _195  and  _196
REMARK   81  A    between atoms: _195  and  _198
REMARK   82  A    between atoms: _198  and  _199
REMARK   83  A    between atoms: _199  and  _200
REMARK   84  A    between atoms: _200  and  _201
REMARK   85  A    between atoms: _201  and  _202
REMARK   86  A    between atoms: _206  and  _208
REMARK   87  A    between atoms: _208  and  _209
REMARK   88  A    between atoms: _211  and  _213
REMARK   89  A    between atoms: _213  and  _214
REMARK   90  A    between atoms: _213  and  _216
REMARK   91  A    between atoms: _219  and  _221
REMARK   92  A    between atoms: _221  and  _222
REMARK   93  A    between atoms: _221  and  _224
REMARK   94  A    between atoms: _224  and  _225
REMARK   95  A    between atoms: _227  and  _229
REMARK   96  A    between atoms: _229  and  _230
REMARK   97  A    between atoms: _229  and  _232
REMARK   98  A    between atoms: _232  and  _233
REMARK   99  A    between atoms: _235  and  _237
REMARK  100  A    between atoms: _237  and  _238
REMARK  101  A    between atoms: _237  and  _240
REMARK  102  A    between atoms: _240  and  _241
REMARK  103  A    between atoms: _247  and  _249
REMARK  104  A    between atoms: _249  and  _250
REMARK  105  A    between atoms: _249  and  _252
REMARK  106  A    between atoms: _252  and  _253
REMARK  107  A    between atoms: _256  and  _258
REMARK  108  A    between atoms: _258  and  _259
REMARK  109  A    between atoms: _258  and  _261
REMARK  110  A    between atoms: _261  and  _262
REMARK  111  A    between atoms: _265  and  _267
REMARK  112  A    between atoms: _267  and  _268
REMARK  113  A    between atoms: _267  and  _270
REMARK  114  A    between atoms: _270  and  _271
REMARK  115  A    between atoms: _271  and  _272
REMARK  116  A    between atoms: _274  and  _276
REMARK  117  A    between atoms: _276  and  _277
REMARK  118  A    between atoms: _276  and  _279
REMARK  119  A    between atoms: _279  and  _280
REMARK  120  A    between atoms: _286  and  _288
REMARK  121  A    between atoms: _288  and  _289
REMARK  122  A    between atoms: _288  and  _291
REMARK  123  A    between atoms: _293  and  _295
REMARK  124  A    between atoms: _295  and  _296
REMARK  125  A    between atoms: _299  and  _301
REMARK  126  A    between atoms: _301  and  _302
REMARK  127  A    between atoms: _304  and  _306
REMARK  128  A    between atoms: _306  and  _307
REMARK  129  A    between atoms: _306  and  _309
REMARK  130  A    between atoms: _309  and  _310
REMARK  131  A    between atoms: _310  and  _311
REMARK  132  A    between atoms: _314  and  _316
REMARK  133  A    between atoms: _316  and  _317
REMARK  134  A    between atoms: _316  and  _319
REMARK  135  A    between atoms: _319  and  _320
REMARK  136  A    between atoms: _323  and  _325
REMARK  137  A    between atoms: _325  and  _326
REMARK  138  A    between atoms: _329  and  _331
REMARK  139  A    between atoms: _331  and  _332
REMARK  140  A    between atoms: _331  and  _334
REMARK  141  A    between atoms: _334  and  _335
REMARK  142  A    between atoms: _335  and  _458
REMARK  143  A    between atoms: _336  and  _338
REMARK  144  A    between atoms: _338  and  _339
REMARK  145  A    between atoms: _338  and  _341
REMARK  146  A    between atoms: _341  and  _342
REMARK  147  A    between atoms: _342  and  _343
REMARK  148  A    between atoms: _348  and  _350
REMARK  149  A    between atoms: _350  and  _351
REMARK  150  A    between atoms: _353  and  _355
REMARK  151  A    between atoms: _355  and  _356
REMARK  152  A    between atoms: _355  and  _358
REMARK  153  A    between atoms: _358  and  _359
REMARK  154  A    between atoms: _362  and  _364
REMARK  155  A    between atoms: _364  and  _365
REMARK  156  A    between atoms: _364  and  _367
REMARK  157  A    between atoms: _367  and  _368
REMARK  158  A    between atoms: _370  and  _372
REMARK  159  A    between atoms: _372  and  _373
REMARK  160  A    between atoms: _375  and  _377
REMARK  161  A    between atoms: _377  and  _378
REMARK  162  A    between atoms: _380  and  _382
REMARK  163  A    between atoms: _382  and  _383
REMARK  164  A    between atoms: _382  and  _385
REMARK  165  A    between atoms: _385  and  _386
REMARK  166  A    between atoms: _391  and  _393
REMARK  167  A    between atoms: _393  and  _394
REMARK  168  A    between atoms: _393  and  _396
REMARK  169  A    between atoms: _396  and  _397
REMARK  170  A    between atoms: _400  and  _402
REMARK  171  A    between atoms: _402  and  _403
REMARK  172  A    between atoms: _402  and  _405
REMARK  173  A    between atoms: _408  and  _410
REMARK  174  A    between atoms: _410  and  _411
REMARK  175  A    between atoms: _410  and  _413
REMARK  176  A    between atoms: _413  and  _414
REMARK  177  A    between atoms: _416  and  _418
REMARK  178  A    between atoms: _418  and  _419
REMARK  179  A    between atoms: _418  and  _421
REMARK  180  A    between atoms: _421  and  _422
REMARK  181  A    between atoms: _432  and  _434
REMARK  182  A    between atoms: _434  and  _435
REMARK  183  A    between atoms: _437  and  _439
REMARK  184  A    between atoms: _439  and  _440
REMARK  185  A    between atoms: _439  and  _442
REMARK  186  A    between atoms: _442  and  _443
REMARK  187  A    between atoms: _443  and  _444
REMARK  188  A    between atoms: _447  and  _449
REMARK  189  A    between atoms: _449  and  _450
REMARK  190  A    between atoms: _452  and  _454
REMARK  191  A    between atoms: _454  and  _455
REMARK  192  A    between atoms: _454  and  _457
REMARK  193  A    between atoms: _457  and  _458
REMARK  194  A    between atoms: _459  and  _461
REMARK  195  A    between atoms: _461  and  _462
REMARK  196  A    between atoms: _465  and  _467
REMARK  197  A    between atoms: _467  and  _468
REMARK  198  A    between atoms: _467  and  _470
REMARK  199  A    between atoms: _470  and  _471
REMARK  200  A    between atoms: _471  and  _472
REMARK  201  A    between atoms: _472  and  _473
REMARK  202  A    between atoms: _482  and  _484
REMARK  203  A    between atoms: _484  and  _485
REMARK  204  A    between atoms: _484  and  _487
REMARK  205  A    between atoms: _487  and  _488
REMARK  206  A    between atoms: _488  and  _489
REMARK  207  A    between atoms: _489  and  _490
REMARK  208  A    between atoms: _490  and  _491
REMARK  209  A    between atoms: _495  and  _497
REMARK  210  A    between atoms: _497  and  _498
REMARK  211  A    between atoms: _497  and  _500
REMARK  212  A    between atoms: _500  and  _501
REMARK  213  A    between atoms: _506  and  _507
REMARK  214  A    between atoms: _509  and  _511
REMARK  215  A    between atoms: _511  and  _512
REMARK  216  A    between atoms: _514  and  _516
REMARK  217  A    between atoms: _516  and  _517
REMARK  218  A    between atoms: _516  and  _519
REMARK  219  A    between atoms: _519  and  _520
REMARK  220  A    between atoms: _523  and  _525
REMARK  221  A    between atoms: _525  and  _526
REMARK  222  A    between atoms: _525  and  _528
REMARK  223  A    between atoms: _528  and  _529
REMARK  224  A    between atoms: _534  and  _535
REMARK  225  A    between atoms: _537  and  _539
REMARK  226  A    between atoms: _539  and  _540
REMARK  227  A    between atoms: _539  and  _542
REMARK  228  A    between atoms: _542  and  _543
REMARK                            x       y       z     vdW  Elec       q    Type
REMARK                         _______ _______ _______ _____ _____    ______ ____
ROOT
ATOM      1  O   HOH     1      -9.528  10.165  21.463  0.00  0.00    +0.000 OA
ENDROOT
TORSDOF 0
REMARK  Name = ../refined-set-2016/2y5f/2y5f_pocket.pdb
REMARK  228 active torsions:
REMARK  status: ('A' for Active; 'I' for Inactive)
REMARK    1  A    between atoms: _1  and  _5
REMARK    2  A    between atoms: _5  and  _6
REMARK    3  A    between atoms: _5  and  _8
REMARK    4  A    between atoms: _8  and  _9
REMARK    5  A    between atoms: _12  and  _14
REMARK    6  A    between atoms: _14  and  _15
REMARK    7  A    between atoms: _14  and  _17
REMARK    8  A    between atoms: _20  and  _22
REMARK    9  A    between atoms: _22  and  _23
REMARK   10  A    between atoms: _22  and  _25
REMARK   11  A    between atoms: _25  and  _26
REMARK   12  A    between atoms: _32  and  _34
REMARK   13  A    between atoms: _34  and  _35
REMARK   14  A    between atoms: _34  and  _37
REMARK   15  A    between atoms: _39  and  _41
REMARK   16  A    between atoms: _41  and  _42
REMARK   17  A    between atoms: _41  and  _44
REMARK   18  A    between atoms: _44  and  _45
REMARK   19  A    between atoms: _50  and  _52
REMARK   20  A    between atoms: _52  and  _53
REMARK   21  A    between atoms: _52  and  _55
REMARK   22  A    between atoms: _55  and  _56
REMARK   23  A    between atoms: _56  and  _57
REMARK   24  A    between atoms: _62  and  _64
REMARK   25  A    between atoms: _64  and  _65
REMARK   26  A    between atoms: _64  and  _67
REMARK   27  A    between atoms: _67  and  _68
REMARK   28  A    between atoms: _74  and  _76
REMARK   29  A    between atoms: _76  and  _77
REMARK   30  A    between atoms: _76  and  _79
REMARK   31  A    between atoms: _79  and  _80
REMARK   32  A    between atoms: _83  and  _85
REMARK   33  A    between atoms: _85  and  _86
REMARK   34  A    between atoms: _85  and  _88
REMARK   35  A    between atoms: _88  and  _89
REMARK   36  A    between atoms: _89  and  _90
REMARK   37  A    between atoms: _90  and  _91
REMARK   38  A    between atoms: _91  and  _92
REMARK   39  A    between atoms: _96  and  _98
REMARK   40  A    between atoms: _98  and  _99
REMARK   41  A    between atoms: _98  and  _101
REMARK   42  A    between atoms: _101  and  _102
REMARK   43  A    between atoms: _102  and  _103
REMARK   44  A    between atoms: _106  and  _108
REMARK   45  A    between atoms: _108  and  _109
REMARK   46  A    between atoms: _108  and  _111
REMARK   47  A    between atoms: _111  and  _112
REMARK   48  A    between atoms: _115  and  _117
REMARK   49  A    between atoms: _117  and  _118
REMARK   50  A    between atoms: _117  and  _120
REMARK   51  A    between atoms: _120  and  _121
REMARK   52  A    between atoms: _126  and  _127
REMARK   53  A    between atoms: _129  and  _131
REMARK   54  A    between atoms: _131  and  _132
REMARK   55  A    between atoms: _131  and  _134
REMARK   56  A    between atoms: _134  and  _135
REMARK   57  A    between atoms: _138  and  _140
REMARK   58  A    between atoms: _140  and  _141
REMARK   59  A    between atoms: _140  and  _143
REMARK   60  A    between atoms: _143  and  _144
REMARK   61  A    between atoms: _147  and  _149
REMARK   62  A    between atoms: _149  and  _150
REMARK   63  A    between atoms: _149  and  _152
REMARK   64  A    between atoms: _155  and  _157
REMARK   65  A    between atoms: _157  and  _158
REMARK   66  A    between atoms: _157  and  _160
REMARK   67  A    between atoms: _160  and  _161
REMARK   68  A    between atoms: _161  and  _162
REMARK   69  A    between atoms: _162  and  _163
REMARK   70  A    between atoms: _172  and  _174
REMARK   71  A    between atoms: _174  and  _175
REMARK   72  A    between atoms: _174  and  _177
REMARK   73  A    between atoms: _177  and  _178
REMARK   74  A    between atoms: _183  and  _185
REMARK   75  A    between atoms: _185  and  _186
REMARK   76  A    between atoms: _185  and  _188
REMARK   77  A    between atoms: _188  and  _189
REMARK   78  A    between atoms: _189  and  _190
REMARK   79  A    between atoms: _193  and  _195
REMARK   80  A    between atoms: _195  and  _196
REMARK   81  A    between atoms: _195  and  _198
REMARK   82  A    between atoms: _198  and  _199
REMARK   83  A    between atoms: _199  and  _200
REMARK   84  A    between atoms: _200  and  _201
REMARK   85  A    between atoms: _201  and  _202
REMARK   86  A    between atoms: _206  and  _208
REMARK   87  A    between atoms: _208  and  _209
REMARK   88  A    between atoms: _211  and  _213
REMARK   89  A    between atoms: _213  and  _214
REMARK   90  A    between atoms: _213  and  _216
REMARK   91  A    between atoms: _219  and  _221
REMARK   92  A    between atoms: _221  and  _222
REMARK   93  A    between atoms: _221  and  _224
REMARK   94  A    between atoms: _224  and  _225
REMARK   95  A    between atoms: _227  and  _229
REMARK   96  A    between atoms: _229  and  _230
REMARK   97  A    between atoms: _229  and  _232
REMARK   98  A    between atoms: _232  and  _233
REMARK   99  A    between atoms: _235  and  _237
REMARK  100  A    between atoms: _237  and  _238
REMARK  101  A    between atoms: _237  and  _240
REMARK  102  A    between atoms: _240  and  _241
REMARK  103  A    between atoms: _247  and  _249
REMARK  104  A    between atoms: _249  and  _250
REMARK  105  A    between atoms: _249  and  _252
REMARK  106  A    between atoms: _252  and  _253
REMARK  107  A    between atoms: _256  and  _258
REMARK  108  A    between atoms: _258  and  _259
REMARK  109  A    between atoms: _258  and  _261
REMARK  110  A    between atoms: _261  and  _262
REMARK  111  A    between atoms: _265  and  _267
REMARK  112  A    between atoms: _267  and  _268
REMARK  113  A    between atoms: _267  and  _270
REMARK  114  A    between atoms: _270  and  _271
REMARK  115  A    between atoms: _271  and  _272
REMARK  116  A    between atoms: _274  and  _276
REMARK  117  A    between atoms: _276  and  _277
REMARK  118  A    between atoms: _276  and  _279
REMARK  119  A    between atoms: _279  and  _280
REMARK  120  A    between atoms: _286  and  _288
REMARK  121  A    between atoms: _288  and  _289
REMARK  122  A    between atoms: _288  and  _291
REMARK  123  A    between atoms: _293  and  _295
REMARK  124  A    between atoms: _295  and  _296
REMARK  125  A    between atoms: _299  and  _301
REMARK  126  A    between atoms: _301  and  _302
REMARK  127  A    between atoms: _304  and  _306
REMARK  128  A    between atoms: _306  and  _307
REMARK  129  A    between atoms: _306  and  _309
REMARK  130  A    between atoms: _309  and  _310
REMARK  131  A    between atoms: _310  and  _311
REMARK  132  A    between atoms: _314  and  _316
REMARK  133  A    between atoms: _316  and  _317
REMARK  134  A    between atoms: _316  and  _319
REMARK  135  A    between atoms: _319  and  _320
REMARK  136  A    between atoms: _323  and  _325
REMARK  137  A    between atoms: _325  and  _326
REMARK  138  A    between atoms: _329  and  _331
REMARK  139  A    between atoms: _331  and  _332
REMARK  140  A    between atoms: _331  and  _334
REMARK  141  A    between atoms: _334  and  _335
REMARK  142  A    between atoms: _335  and  _458
REMARK  143  A    between atoms: _336  and  _338
REMARK  144  A    between atoms: _338  and  _339
REMARK  145  A    between atoms: _338  and  _341
REMARK  146  A    between atoms: _341  and  _342
REMARK  147  A    between atoms: _342  and  _343
REMARK  148  A    between atoms: _348  and  _350
REMARK  149  A    between atoms: _350  and  _351
REMARK  150  A    between atoms: _353  and  _355
REMARK  151  A    between atoms: _355  and  _356
REMARK  152  A    between atoms: _355  and  _358
REMARK  153  A    between atoms: _358  and  _359
REMARK  154  A    between atoms: _362  and  _364
REMARK  155  A    between atoms: _364  and  _365
REMARK  156  A    between atoms: _364  and  _367
REMARK  157  A    between atoms: _367  and  _368
REMARK  158  A    between atoms: _370  and  _372
REMARK  159  A    between atoms: _372  and  _373
REMARK  160  A    between atoms: _375  and  _377
REMARK  161  A    between atoms: _377  and  _378
REMARK  162  A    between atoms: _380  and  _382
REMARK  163  A    between atoms: _382  and  _383
REMARK  164  A    between atoms: _382  and  _385
REMARK  165  A    between atoms: _385  and  _386
REMARK  166  A    between atoms: _391  and  _393
REMARK  167  A    between atoms: _393  and  _394
REMARK  168  A    between atoms: _393  and  _396
REMARK  169  A    between atoms: _396  and  _397
REMARK  170  A    between atoms: _400  and  _402
REMARK  171  A    between atoms: _402  and  _403
REMARK  172  A    between atoms: _402  and  _405
REMARK  173  A    between atoms: _408  and  _410
REMARK  174  A    between atoms: _410  and  _411
REMARK  175  A    between atoms: _410  and  _413
REMARK  176  A    between atoms: _413  and  _414
REMARK  177  A    between atoms: _416  and  _418
REMARK  178  A    between atoms: _418  and  _419
REMARK  179  A    between atoms: _418  and  _421
REMARK  180  A    between atoms: _421  and  _422
REMARK  181  A    between atoms: _432  and  _434
REMARK  182  A    between atoms: _434  and  _435
REMARK  183  A    between atoms: _437  and  _439
REMARK  184  A    between atoms: _439  and  _440
REMARK  185  A    between atoms: _439  and  _442
REMARK  186  A    between atoms: _442  and  _443
REMARK  187  A    between atoms: _443  and  _444
REMARK  188  A    between atoms: _447  and  _449
REMARK  189  A    between atoms: _449  and  _450
REMARK  190  A    between atoms: _452  and  _454
REMARK  191  A    between atoms: _454  and  _455
REMARK  192  A    between atoms: _454  and  _457
REMARK  193  A    between atoms: _457  and  _458
REMARK  194  A    between atoms: _459  and  _461
REMARK  195  A    between atoms: _461  and  _462
REMARK  196  A    between atoms: _465  and  _467
REMARK  197  A    between atoms: _467  and  _468
REMARK  198  A    between atoms: _467  and  _470
REMARK  199  A    between atoms: _470  and  _471
REMARK  200  A    between atoms: _471  and  _472
REMARK  201  A    between atoms: _472  and  _473
REMARK  202  A    between atoms: _482  and  _484
REMARK  203  A    between atoms: _484  and  _485
REMARK  204  A    between atoms: _484  and  _487
REMARK  205  A    between atoms: _487  and  _488
REMARK  206  A    between atoms: _488  and  _489
REMARK  207  A    between atoms: _489  and  _490
REMARK  208  A    between atoms: _490  and  _491
REMARK  209  A    between atoms: _495  and  _497
REMARK  210  A    between atoms: _497  and  _498
REMARK  211  A    between atoms: _497  and  _500
REMARK  212  A    between atoms: _500  and  _501
REMARK  213  A    between atoms: _506  and  _507
REMARK  214  A    between atoms: _509  and  _511
REMARK  215  A    between atoms: _511  and  _512
REMARK  216  A    between atoms: _514  and  _516
REMARK  217  A    between atoms: _516  and  _517
REMARK  218  A    between atoms: _516  and  _519
REMARK  219  A    between atoms: _519  and  _520
REMARK  220  A    between atoms: _523  and  _525
REMARK  221  A    between atoms: _525  and  _526
REMARK  222  A    between atoms: _525  and  _528
REMARK  223  A    between atoms: _528  and  _529
REMARK  224  A    between atoms: _534  and  _535
REMARK  225  A    between atoms: _537  and  _539
REMARK  226  A    between atoms: _539  and  _540
REMARK  227  A    between atoms: _539  and  _542
REMARK  228  A    between atoms: _542  and  _543
REMARK                            x       y       z     vdW  Elec       q    Type
REMARK                         _______ _______ _______ _____ _____    ______ ____
ROOT
ATOM      1  O   HOH     1      -0.576   1.648  19.574  0.00  0.00    +0.000 OA
ENDROOT
TORSDOF 0
REMARK  Name = ../refined-set-2016/2y5f/2y5f_pocket.pdb
REMARK  228 active torsions:
REMARK  status: ('A' for Active; 'I' for Inactive)
REMARK    1  A    between atoms: _1  and  _5
REMARK    2  A    between atoms: _5  and  _6
REMARK    3  A    between atoms: _5  and  _8
REMARK    4  A    between atoms: _8  and  _9
REMARK    5  A    between atoms: _12  and  _14
REMARK    6  A    between atoms: _14  and  _15
REMARK    7  A    between atoms: _14  and  _17
REMARK    8  A    between atoms: _20  and  _22
REMARK    9  A    between atoms: _22  and  _23
REMARK   10  A    between atoms: _22  and  _25
REMARK   11  A    between atoms: _25  and  _26
REMARK   12  A    between atoms: _32  and  _34
REMARK   13  A    between atoms: _34  and  _35
REMARK   14  A    between atoms: _34  and  _37
REMARK   15  A    between atoms: _39  and  _41
REMARK   16  A    between atoms: _41  and  _42
REMARK   17  A    between atoms: _41  and  _44
REMARK   18  A    between atoms: _44  and  _45
REMARK   19  A    between atoms: _50  and  _52
REMARK   20  A    between atoms: _52  and  _53
REMARK   21  A    between atoms: _52  and  _55
REMARK   22  A    between atoms: _55  and  _56
REMARK   23  A    between atoms: _56  and  _57
REMARK   24  A    between atoms: _62  and  _64
REMARK   25  A    between atoms: _64  and  _65
REMARK   26  A    between atoms: _64  and  _67
REMARK   27  A    between atoms: _67  and  _68
REMARK   28  A    between atoms: _74  and  _76
REMARK   29  A    between atoms: _76  and  _77
REMARK   30  A    between atoms: _76  and  _79
REMARK   31  A    between atoms: _79  and  _80
REMARK   32  A    between atoms: _83  and  _85
REMARK   33  A    between atoms: _85  and  _86
REMARK   34  A    between atoms: _85  and  _88
REMARK   35  A    between atoms: _88  and  _89
REMARK   36  A    between atoms: _89  and  _90
REMARK   37  A    between atoms: _90  and  _91
REMARK   38  A    between atoms: _91  and  _92
REMARK   39  A    between atoms: _96  and  _98
REMARK   40  A    between atoms: _98  and  _99
REMARK   41  A    between atoms: _98  and  _101
REMARK   42  A    between atoms: _101  and  _102
REMARK   43  A    between atoms: _102  and  _103
REMARK   44  A    between atoms: _106  and  _108
REMARK   45  A    between atoms: _108  and  _109
REMARK   46  A    between atoms: _108  and  _111
REMARK   47  A    between atoms: _111  and  _112
REMARK   48  A    between atoms: _115  and  _117
REMARK   49  A    between atoms: _117  and  _118
REMARK   50  A    between atoms: _117  and  _120
REMARK   51  A    between atoms: _120  and  _121
REMARK   52  A    between atoms: _126  and  _127
REMARK   53  A    between atoms: _129  and  _131
REMARK   54  A    between atoms: _131  and  _132
REMARK   55  A    between atoms: _131  and  _134
REMARK   56  A    between atoms: _134  and  _135
REMARK   57  A    between atoms: _138  and  _140
REMARK   58  A    between atoms: _140  and  _141
REMARK   59  A    between atoms: _140  and  _143
REMARK   60  A    between atoms: _143  and  _144
REMARK   61  A    between atoms: _147  and  _149
REMARK   62  A    between atoms: _149  and  _150
REMARK   63  A    between atoms: _149  and  _152
REMARK   64  A    between atoms: _155  and  _157
REMARK   65  A    between atoms: _157  and  _158
REMARK   66  A    between atoms: _157  and  _160
REMARK   67  A    between atoms: _160  and  _161
REMARK   68  A    between atoms: _161  and  _162
REMARK   69  A    between atoms: _162  and  _163
REMARK   70  A    between atoms: _172  and  _174
REMARK   71  A    between atoms: _174  and  _175
REMARK   72  A    between atoms: _174  and  _177
REMARK   73  A    between atoms: _177  and  _178
REMARK   74  A    between atoms: _183  and  _185
REMARK   75  A    between atoms: _185  and  _186
REMARK   76  A    between atoms: _185  and  _188
REMARK   77  A    between atoms: _188  and  _189
REMARK   78  A    between atoms: _189  and  _190
REMARK   79  A    between atoms: _193  and  _195
REMARK   80  A    between atoms: _195  and  _196
REMARK   81  A    between atoms: _195  and  _198
REMARK   82  A    between atoms: _198  and  _199
REMARK   83  A    between atoms: _199  and  _200
REMARK   84  A    between atoms: _200  and  _201
REMARK   85  A    between atoms: _201  and  _202
REMARK   86  A    between atoms: _206  and  _208
REMARK   87  A    between atoms: _208  and  _209
REMARK   88  A    between atoms: _211  and  _213
REMARK   89  A    between atoms: _213  and  _214
REMARK   90  A    between atoms: _213  and  _216
REMARK   91  A    between atoms: _219  and  _221
REMARK   92  A    between atoms: _221  and  _222
REMARK   93  A    between atoms: _221  and  _224
REMARK   94  A    between atoms: _224  and  _225
REMARK   95  A    between atoms: _227  and  _229
REMARK   96  A    between atoms: _229  and  _230
REMARK   97  A    between atoms: _229  and  _232
REMARK   98  A    between atoms: _232  and  _233
REMARK   99  A    between atoms: _235  and  _237
REMARK  100  A    between atoms: _237  and  _238
REMARK  101  A    between atoms: _237  and  _240
REMARK  102  A    between atoms: _240  and  _241
REMARK  103  A    between atoms: _247  and  _249
REMARK  104  A    between atoms: _249  and  _250
REMARK  105  A    between atoms: _249  and  _252
REMARK  106  A    between atoms: _252  and  _253
REMARK  107  A    between atoms: _256  and  _258
REMARK  108  A    between atoms: _258  and  _259
REMARK  109  A    between atoms: _258  and  _261
REMARK  110  A    between atoms: _261  and  _262
REMARK  111  A    between atoms: _265  and  _267
REMARK  112  A    between atoms: _267  and  _268
REMARK  113  A    between atoms: _267  and  _270
REMARK  114  A    between atoms: _270  and  _271
REMARK  115  A    between atoms: _271  and  _272
REMARK  116  A    between atoms: _274  and  _276
REMARK  117  A    between atoms: _276  and  _277
REMARK  118  A    between atoms: _276  and  _279
REMARK  119  A    between atoms: _279  and  _280
REMARK  120  A    between atoms: _286  and  _288
REMARK  121  A    between atoms: _288  and  _289
REMARK  122  A    between atoms: _288  and  _291
REMARK  123  A    between atoms: _293  and  _295
REMARK  124  A    between atoms: _295  and  _296
REMARK  125  A    between atoms: _299  and  _301
REMARK  126  A    between atoms: _301  and  _302
REMARK  127  A    between atoms: _304  and  _306
REMARK  128  A    between atoms: _306  and  _307
REMARK  129  A    between atoms: _306  and  _309
REMARK  130  A    between atoms: _309  and  _310
REMARK  131  A    between atoms: _310  and  _311
REMARK  132  A    between atoms: _314  and  _316
REMARK  133  A    between atoms: _316  and  _317
REMARK  134  A    between atoms: _316  and  _319
REMARK  135  A    between atoms: _319  and  _320
REMARK  136  A    between atoms: _323  and  _325
REMARK  137  A    between atoms: _325  and  _326
REMARK  138  A    between atoms: _329  and  _331
REMARK  139  A    between atoms: _331  and  _332
REMARK  140  A    between atoms: _331  and  _334
REMARK  141  A    between atoms: _334  and  _335
REMARK  142  A    between atoms: _335  and  _458
REMARK  143  A    between atoms: _336  and  _338
REMARK  144  A    between atoms: _338  and  _339
REMARK  145  A    between atoms: _338  and  _341
REMARK  146  A    between atoms: _341  and  _342
REMARK  147  A    between atoms: _342  and  _343
REMARK  148  A    between atoms: _348  and  _350
REMARK  149  A    between atoms: _350  and  _351
REMARK  150  A    between atoms: _353  and  _355
REMARK  151  A    between atoms: _355  and  _356
REMARK  152  A    between atoms: _355  and  _358
REMARK  153  A    between atoms: _358  and  _359
REMARK  154  A    between atoms: _362  and  _364
REMARK  155  A    between atoms: _364  and  _365
REMARK  156  A    between atoms: _364  and  _367
REMARK  157  A    between atoms: _367  and  _368
REMARK  158  A    between atoms: _370  and  _372
REMARK  159  A    between atoms: _372  and  _373
REMARK  160  A    between atoms: _375  and  _377
REMARK  161  A    between atoms: _377  and  _378
REMARK  162  A    between atoms: _380  and  _382
REMARK  163  A    between atoms: _382  and  _383
REMARK  164  A    between atoms: _382  and  _385
REMARK  165  A    between atoms: _385  and  _386
REMARK  166  A    between atoms: _391  and  _393
REMARK  167  A    between atoms: _393  and  _394
REMARK  168  A    between atoms: _393  and  _396
REMARK  169  A    between atoms: _396  and  _397
REMARK  170  A    between atoms: _400  and  _402
REMARK  171  A    between atoms: _402  and  _403
REMARK  172  A    between atoms: _402  and  _405
REMARK  173  A    between atoms: _408  and  _410
REMARK  174  A    between atoms: _410  and  _411
REMARK  175  A    between atoms: _410  and  _413
REMARK  176  A    between atoms: _413  and  _414
REMARK  177  A    between atoms: _416  and  _418
REMARK  178  A    between atoms: _418  and  _419
REMARK  179  A    between atoms: _418  and  _421
REMARK  180  A    between atoms: _421  and  _422
REMARK  181  A    between atoms: _432  and  _434
REMARK  182  A    between atoms: _434  and  _435
REMARK  183  A    between atoms: _437  and  _439
REMARK  184  A    between atoms: _439  and  _440
REMARK  185  A    between atoms: _439  and  _442
REMARK  186  A    between atoms: _442  and  _443
REMARK  187  A    between atoms: _443  and  _444
REMARK  188  A    between atoms: _447  and  _449
REMARK  189  A    between atoms: _449  and  _450
REMARK  190  A    between atoms: _452  and  _454
REMARK  191  A    between atoms: _454  and  _455
REMARK  192  A    between atoms: _454  and  _457
REMARK  193  A    between atoms: _457  and  _458
REMARK  194  A    between atoms: _459  and  _461
REMARK  195  A    between atoms: _461  and  _462
REMARK  196  A    between atoms: _465  and  _467
REMARK  197  A    between atoms: _467  and  _468
REMARK  198  A    between atoms: _467  and  _470
REMARK  199  A    between atoms: _470  and  _471
REMARK  200  A    between atoms: _471  and  _472
REMARK  201  A    between atoms: _472  and  _473
REMARK  202  A    between atoms: _482  and  _484
REMARK  203  A    between atoms: _484  and  _485
REMARK  204  A    between atoms: _484  and  _487
REMARK  205  A    between atoms: _487  and  _488
REMARK  206  A    between atoms: _488  and  _489
REMARK  207  A    between atoms: _489  and  _490
REMARK  208  A    between atoms: _490  and  _491
REMARK  209  A    between atoms: _495  and  _497
REMARK  210  A    between atoms: _497  and  _498
REMARK  211  A    between atoms: _497  and  _500
REMARK  212  A    between atoms: _500  and  _501
REMARK  213  A    between atoms: _506  and  _507
REMARK  214  A    between atoms: _509  and  _511
REMARK  215  A    between atoms: _511  and  _512
REMARK  216  A    between atoms: _514  and  _516
REMARK  217  A    between atoms: _516  and  _517
REMARK  218  A    between atoms: _516  and  _519
REMARK  219  A    between atoms: _519  and  _520
REMARK  220  A    between atoms: _523  and  _525
REMARK  221  A    between atoms: _525  and  _526
REMARK  222  A    between atoms: _525  and  _528
REMARK  223  A    between atoms: _528  and  _529
REMARK  224  A    between atoms: _534  and  _535
REMARK  225  A    between atoms: _537  and  _539
REMARK  226  A    between atoms: _539  and  _540
REMARK  227  A    between atoms: _539  and  _542
REMARK  228  A    between atoms: _542  and  _543
REMARK                            x       y       z     vdW  Elec       q    Type
REMARK                         _______ _______ _______ _____ _____    ______ ____
ROOT
ATOM      1  O   HOH     1      -0.712  11.446  19.513  0.00  0.00    +0.000 OA
ENDROOT
TORSDOF 0
REMARK  Name = ../refined-set-2016/2y5f/2y5f_pocket.pdb
REMARK  228 active torsions:
REMARK  status: ('A' for Active; 'I' for Inactive)
REMARK    1  A    between atoms: _1  and  _5
REMARK    2  A    between atoms: _5  and  _6
REMARK    3  A    between atoms: _5  and  _8
REMARK    4  A    between atoms: _8  and  _9
REMARK    5  A    between atoms: _12  and  _14
REMARK    6  A    between atoms: _14  and  _15
REMARK    7  A    between atoms: _14  and  _17
REMARK    8  A    between atoms: _20  and  _22
REMARK    9  A    between atoms: _22  and  _23
REMARK   10  A    between atoms: _22  and  _25
REMARK   11  A    between atoms: _25  and  _26
REMARK   12  A    between atoms: _32  and  _34
REMARK   13  A    between atoms: _34  and  _35
REMARK   14  A    between atoms: _34  and  _37
REMARK   15  A    between atoms: _39  and  _41
REMARK   16  A    between atoms: _41  and  _42
REMARK   17  A    between atoms: _41  and  _44
REMARK   18  A    between atoms: _44  and  _45
REMARK   19  A    between atoms: _50  and  _52
REMARK   20  A    between atoms: _52  and  _53
REMARK   21  A    between atoms: _52  and  _55
REMARK   22  A    between atoms: _55  and  _56
REMARK   23  A    between atoms: _56  and  _57
REMARK   24  A    between atoms: _62  and  _64
REMARK   25  A    between atoms: _64  and  _65
REMARK   26  A    between atoms: _64  and  _67
REMARK   27  A    between atoms: _67  and  _68
REMARK   28  A    between atoms: _74  and  _76
REMARK   29  A    between atoms: _76  and  _77
REMARK   30  A    between atoms: _76  and  _79
REMARK   31  A    between atoms: _79  and  _80
REMARK   32  A    between atoms: _83  and  _85
REMARK   33  A    between atoms: _85  and  _86
REMARK   34  A    between atoms: _85  and  _88
REMARK   35  A    between atoms: _88  and  _89
REMARK   36  A    between atoms: _89  and  _90
REMARK   37  A    between atoms: _90  and  _91
REMARK   38  A    between atoms: _91  and  _92
REMARK   39  A    between atoms: _96  and  _98
REMARK   40  A    between atoms: _98  and  _99
REMARK   41  A    between atoms: _98  and  _101
REMARK   42  A    between atoms: _101  and  _102
REMARK   43  A    between atoms: _102  and  _103
REMARK   44  A    between atoms: _106  and  _108
REMARK   45  A    between atoms: _108  and  _109
REMARK   46  A    between atoms: _108  and  _111
REMARK   47  A    between atoms: _111  and  _112
REMARK   48  A    between atoms: _115  and  _117
REMARK   49  A    between atoms: _117  and  _118
REMARK   50  A    between atoms: _117  and  _120
REMARK   51  A    between atoms: _120  and  _121
REMARK   52  A    between atoms: _126  and  _127
REMARK   53  A    between atoms: _129  and  _131
REMARK   54  A    between atoms: _131  and  _132
REMARK   55  A    between atoms: _131  and  _134
REMARK   56  A    between atoms: _134  and  _135
REMARK   57  A    between atoms: _138  and  _140
REMARK   58  A    between atoms: _140  and  _141
REMARK   59  A    between atoms: _140  and  _143
REMARK   60  A    between atoms: _143  and  _144
REMARK   61  A    between atoms: _147  and  _149
REMARK   62  A    between atoms: _149  and  _150
REMARK   63  A    between atoms: _149  and  _152
REMARK   64  A    between atoms: _155  and  _157
REMARK   65  A    between atoms: _157  and  _158
REMARK   66  A    between atoms: _157  and  _160
REMARK   67  A    between atoms: _160  and  _161
REMARK   68  A    between atoms: _161  and  _162
REMARK   69  A    between atoms: _162  and  _163
REMARK   70  A    between atoms: _172  and  _174
REMARK   71  A    between atoms: _174  and  _175
REMARK   72  A    between atoms: _174  and  _177
REMARK   73  A    between atoms: _177  and  _178
REMARK   74  A    between atoms: _183  and  _185
REMARK   75  A    between atoms: _185  and  _186
REMARK   76  A    between atoms: _185  and  _188
REMARK   77  A    between atoms: _188  and  _189
REMARK   78  A    between atoms: _189  and  _190
REMARK   79  A    between atoms: _193  and  _195
REMARK   80  A    between atoms: _195  and  _196
REMARK   81  A    between atoms: _195  and  _198
REMARK   82  A    between atoms: _198  and  _199
REMARK   83  A    between atoms: _199  and  _200
REMARK   84  A    between atoms: _200  and  _201
REMARK   85  A    between atoms: _201  and  _202
REMARK   86  A    between atoms: _206  and  _208
REMARK   87  A    between atoms: _208  and  _209
REMARK   88  A    between atoms: _211  and  _213
REMARK   89  A    between atoms: _213  and  _214
REMARK   90  A    between atoms: _213  and  _216
REMARK   91  A    between atoms: _219  and  _221
REMARK   92  A    between atoms: _221  and  _222
REMARK   93  A    between atoms: _221  and  _224
REMARK   94  A    between atoms: _224  and  _225
REMARK   95  A    between atoms: _227  and  _229
REMARK   96  A    between atoms: _229  and  _230
REMARK   97  A    between atoms: _229  and  _232
REMARK   98  A    between atoms: _232  and  _233
REMARK   99  A    between atoms: _235  and  _237
REMARK  100  A    between atoms: _237  and  _238
REMARK  101  A    between atoms: _237  and  _240
REMARK  102  A    between atoms: _240  and  _241
REMARK  103  A    between atoms: _247  and  _249
REMARK  104  A    between atoms: _249  and  _250
REMARK  105  A    between atoms: _249  and  _252
REMARK  106  A    between atoms: _252  and  _253
REMARK  107  A    between atoms: _256  and  _258
REMARK  108  A    between atoms: _258  and  _259
REMARK  109  A    between atoms: _258  and  _261
REMARK  110  A    between atoms: _261  and  _262
REMARK  111  A    between atoms: _265  and  _267
REMARK  112  A    between atoms: _267  and  _268
REMARK  113  A    between atoms: _267  and  _270
REMARK  114  A    between atoms: _270  and  _271
REMARK  115  A    between atoms: _271  and  _272
REMARK  116  A    between atoms: _274  and  _276
REMARK  117  A    between atoms: _276  and  _277
REMARK  118  A    between atoms: _276  and  _279
REMARK  119  A    between atoms: _279  and  _280
REMARK  120  A    between atoms: _286  and  _288
REMARK  121  A    between atoms: _288  and  _289
REMARK  122  A    between atoms: _288  and  _291
REMARK  123  A    between atoms: _293  and  _295
REMARK  124  A    between atoms: _295  and  _296
REMARK  125  A    between atoms: _299  and  _301
REMARK  126  A    between atoms: _301  and  _302
REMARK  127  A    between atoms: _304  and  _306
REMARK  128  A    between atoms: _306  and  _307
REMARK  129  A    between atoms: _306  and  _309
REMARK  130  A    between atoms: _309  and  _310
REMARK  131  A    between atoms: _310  and  _311
REMARK  132  A    between atoms: _314  and  _316
REMARK  133  A    between atoms: _316  and  _317
REMARK  134  A    between atoms: _316  and  _319
REMARK  135  A    between atoms: _319  and  _320
REMARK  136  A    between atoms: _323  and  _325
REMARK  137  A    between atoms: _325  and  _326
REMARK  138  A    between atoms: _329  and  _331
REMARK  139  A    between atoms: _331  and  _332
REMARK  140  A    between atoms: _331  and  _334
REMARK  141  A    between atoms: _334  and  _335
REMARK  142  A    between atoms: _335  and  _458
REMARK  143  A    between atoms: _336  and  _338
REMARK  144  A    between atoms: _338  and  _339
REMARK  145  A    between atoms: _338  and  _341
REMARK  146  A    between atoms: _341  and  _342
REMARK  147  A    between atoms: _342  and  _343
REMARK  148  A    between atoms: _348  and  _350
REMARK  149  A    between atoms: _350  and  _351
REMARK  150  A    between atoms: _353  and  _355
REMARK  151  A    between atoms: _355  and  _356
REMARK  152  A    between atoms: _355  and  _358
REMARK  153  A    between atoms: _358  and  _359
REMARK  154  A    between atoms: _362  and  _364
REMARK  155  A    between atoms: _364  and  _365
REMARK  156  A    between atoms: _364  and  _367
REMARK  157  A    between atoms: _367  and  _368
REMARK  158  A    between atoms: _370  and  _372
REMARK  159  A    between atoms: _372  and  _373
REMARK  160  A    between atoms: _375  and  _377
REMARK  161  A    between atoms: _377  and  _378
REMARK  162  A    between atoms: _380  and  _382
REMARK  163  A    between atoms: _382  and  _383
REMARK  164  A    between atoms: _382  and  _385
REMARK  165  A    between atoms: _385  and  _386
REMARK  166  A    between atoms: _391  and  _393
REMARK  167  A    between atoms: _393  and  _394
REMARK  168  A    between atoms: _393  and  _396
REMARK  169  A    between atoms: _396  and  _397
REMARK  170  A    between atoms: _400  and  _402
REMARK  171  A    between atoms: _402  and  _403
REMARK  172  A    between atoms: _402  and  _405
REMARK  173  A    between atoms: _408  and  _410
REMARK  174  A    between atoms: _410  and  _411
REMARK  175  A    between atoms: _410  and  _413
REMARK  176  A    between atoms: _413  and  _414
REMARK  177  A    between atoms: _416  and  _418
REMARK  178  A    between atoms: _418  and  _419
REMARK  179  A    between atoms: _418  and  _421
REMARK  180  A    between atoms: _421  and  _422
REMARK  181  A    between atoms: _432  and  _434
REMARK  182  A    between atoms: _434  and  _435
REMARK  183  A    between atoms: _437  and  _439
REMARK  184  A    between atoms: _439  and  _440
REMARK  185  A    between atoms: _439  and  _442
REMARK  186  A    between atoms: _442  and  _443
REMARK  187  A    between atoms: _443  and  _444
REMARK  188  A    between atoms: _447  and  _449
REMARK  189  A    between atoms: _449  and  _450
REMARK  190  A    between atoms: _452  and  _454
REMARK  191  A    between atoms: _454  and  _455
REMARK  192  A    between atoms: _454  and  _457
REMARK  193  A    between atoms: _457  and  _458
REMARK  194  A    between atoms: _459  and  _461
REMARK  195  A    between atoms: _461  and  _462
REMARK  196  A    between atoms: _465  and  _467
REMARK  197  A    between atoms: _467  and  _468
REMARK  198  A    between atoms: _467  and  _470
REMARK  199  A    between atoms: _470  and  _471
REMARK  200  A    between atoms: _471  and  _472
REMARK  201  A    between atoms: _472  and  _473
REMARK  202  A    between atoms: _482  and  _484
REMARK  203  A    between atoms: _484  and  _485
REMARK  204  A    between atoms: _484  and  _487
REMARK  205  A    between atoms: _487  and  _488
REMARK  206  A    between atoms: _488  and  _489
REMARK  207  A    between atoms: _489  and  _490
REMARK  208  A    between atoms: _490  and  _491
REMARK  209  A    between atoms: _495  and  _497
REMARK  210  A    between atoms: _497  and  _498
REMARK  211  A    between atoms: _497  and  _500
REMARK  212  A    between atoms: _500  and  _501
REMARK  213  A    between atoms: _506  and  _507
REMARK  214  A    between atoms: _509  and  _511
REMARK  215  A    between atoms: _511  and  _512
REMARK  216  A    between atoms: _514  and  _516
REMARK  217  A    between atoms: _516  and  _517
REMARK  218  A    between atoms: _516  and  _519
REMARK  219  A    between atoms: _519  and  _520
REMARK  220  A    between atoms: _523  and  _525
REMARK  221  A    between atoms: _525  and  _526
REMARK  222  A    between atoms: _525  and  _528
REMARK  223  A    between atoms: _528  and  _529
REMARK  224  A    between atoms: _534  and  _535
REMARK  225  A    between atoms: _537  and  _539
REMARK  226  A    between atoms: _539  and  _540
REMARK  227  A    between atoms: _539  and  _542
REMARK  228  A    between atoms: _542  and  _543
REMARK                            x       y       z     vdW  Elec       q    Type
REMARK                         _______ _______ _______ _____ _____    ______ ____
ROOT
ATOM      1  O   HOH     1      -1.285  11.516  15.026  0.00  0.00    +0.000 OA
ENDROOT
TORSDOF 0
REMARK  Name = ../refined-set-2016/2y5f/2y5f_pocket.pdb
REMARK  228 active torsions:
REMARK  status: ('A' for Active; 'I' for Inactive)
REMARK    1  A    between atoms: _1  and  _5
REMARK    2  A    between atoms: _5  and  _6
REMARK    3  A    between atoms: _5  and  _8
REMARK    4  A    between atoms: _8  and  _9
REMARK    5  A    between atoms: _12  and  _14
REMARK    6  A    between atoms: _14  and  _15
REMARK    7  A    between atoms: _14  and  _17
REMARK    8  A    between atoms: _20  and  _22
REMARK    9  A    between atoms: _22  and  _23
REMARK   10  A    between atoms: _22  and  _25
REMARK   11  A    between atoms: _25  and  _26
REMARK   12  A    between atoms: _32  and  _34
REMARK   13  A    between atoms: _34  and  _35
REMARK   14  A    between atoms: _34  and  _37
REMARK   15  A    between atoms: _39  and  _41
REMARK   16  A    between atoms: _41  and  _42
REMARK   17  A    between atoms: _41  and  _44
REMARK   18  A    between atoms: _44  and  _45
REMARK   19  A    between atoms: _50  and  _52
REMARK   20  A    between atoms: _52  and  _53
REMARK   21  A    between atoms: _52  and  _55
REMARK   22  A    between atoms: _55  and  _56
REMARK   23  A    between atoms: _56  and  _57
REMARK   24  A    between atoms: _62  and  _64
REMARK   25  A    between atoms: _64  and  _65
REMARK   26  A    between atoms: _64  and  _67
REMARK   27  A    between atoms: _67  and  _68
REMARK   28  A    between atoms: _74  and  _76
REMARK   29  A    between atoms: _76  and  _77
REMARK   30  A    between atoms: _76  and  _79
REMARK   31  A    between atoms: _79  and  _80
REMARK   32  A    between atoms: _83  and  _85
REMARK   33  A    between atoms: _85  and  _86
REMARK   34  A    between atoms: _85  and  _88
REMARK   35  A    between atoms: _88  and  _89
REMARK   36  A    between atoms: _89  and  _90
REMARK   37  A    between atoms: _90  and  _91
REMARK   38  A    between atoms: _91  and  _92
REMARK   39  A    between atoms: _96  and  _98
REMARK   40  A    between atoms: _98  and  _99
REMARK   41  A    between atoms: _98  and  _101
REMARK   42  A    between atoms: _101  and  _102
REMARK   43  A    between atoms: _102  and  _103
REMARK   44  A    between atoms: _106  and  _108
REMARK   45  A    between atoms: _108  and  _109
REMARK   46  A    between atoms: _108  and  _111
REMARK   47  A    between atoms: _111  and  _112
REMARK   48  A    between atoms: _115  and  _117
REMARK   49  A    between atoms: _117  and  _118
REMARK   50  A    between atoms: _117  and  _120
REMARK   51  A    between atoms: _120  and  _121
REMARK   52  A    between atoms: _126  and  _127
REMARK   53  A    between atoms: _129  and  _131
REMARK   54  A    between atoms: _131  and  _132
REMARK   55  A    between atoms: _131  and  _134
REMARK   56  A    between atoms: _134  and  _135
REMARK   57  A    between atoms: _138  and  _140
REMARK   58  A    between atoms: _140  and  _141
REMARK   59  A    between atoms: _140  and  _143
REMARK   60  A    between atoms: _143  and  _144
REMARK   61  A    between atoms: _147  and  _149
REMARK   62  A    between atoms: _149  and  _150
REMARK   63  A    between atoms: _149  and  _152
REMARK   64  A    between atoms: _155  and  _157
REMARK   65  A    between atoms: _157  and  _158
REMARK   66  A    between atoms: _157  and  _160
REMARK   67  A    between atoms: _160  and  _161
REMARK   68  A    between atoms: _161  and  _162
REMARK   69  A    between atoms: _162  and  _163
REMARK   70  A    between atoms: _172  and  _174
REMARK   71  A    between atoms: _174  and  _175
REMARK   72  A    between atoms: _174  and  _177
REMARK   73  A    between atoms: _177  and  _178
REMARK   74  A    between atoms: _183  and  _185
REMARK   75  A    between atoms: _185  and  _186
REMARK   76  A    between atoms: _185  and  _188
REMARK   77  A    between atoms: _188  and  _189
REMARK   78  A    between atoms: _189  and  _190
REMARK   79  A    between atoms: _193  and  _195
REMARK   80  A    between atoms: _195  and  _196
REMARK   81  A    between atoms: _195  and  _198
REMARK   82  A    between atoms: _198  and  _199
REMARK   83  A    between atoms: _199  and  _200
REMARK   84  A    between atoms: _200  and  _201
REMARK   85  A    between atoms: _201  and  _202
REMARK   86  A    between atoms: _206  and  _208
REMARK   87  A    between atoms: _208  and  _209
REMARK   88  A    between atoms: _211  and  _213
REMARK   89  A    between atoms: _213  and  _214
REMARK   90  A    between atoms: _213  and  _216
REMARK   91  A    between atoms: _219  and  _221
REMARK   92  A    between atoms: _221  and  _222
REMARK   93  A    between atoms: _221  and  _224
REMARK   94  A    between atoms: _224  and  _225
REMARK   95  A    between atoms: _227  and  _229
REMARK   96  A    between atoms: _229  and  _230
REMARK   97  A    between atoms: _229  and  _232
REMARK   98  A    between atoms: _232  and  _233
REMARK   99  A    between atoms: _235  and  _237
REMARK  100  A    between atoms: _237  and  _238
REMARK  101  A    between atoms: _237  and  _240
REMARK  102  A    between atoms: _240  and  _241
REMARK  103  A    between atoms: _247  and  _249
REMARK  104  A    between atoms: _249  and  _250
REMARK  105  A    between atoms: _249  and  _252
REMARK  106  A    between atoms: _252  and  _253
REMARK  107  A    between atoms: _256  and  _258
REMARK  108  A    between atoms: _258  and  _259
REMARK  109  A    between atoms: _258  and  _261
REMARK  110  A    between atoms: _261  and  _262
REMARK  111  A    between atoms: _265  and  _267
REMARK  112  A    between atoms: _267  and  _268
REMARK  113  A    between atoms: _267  and  _270
REMARK  114  A    between atoms: _270  and  _271
REMARK  115  A    between atoms: _271  and  _272
REMARK  116  A    between atoms: _274  and  _276
REMARK  117  A    between atoms: _276  and  _277
REMARK  118  A    between atoms: _276  and  _279
REMARK  119  A    between atoms: _279  and  _280
REMARK  120  A    between atoms: _286  and  _288
REMARK  121  A    between atoms: _288  and  _289
REMARK  122  A    between atoms: _288  and  _291
REMARK  123  A    between atoms: _293  and  _295
REMARK  124  A    between atoms: _295  and  _296
REMARK  125  A    between atoms: _299  and  _301
REMARK  126  A    between atoms: _301  and  _302
REMARK  127  A    between atoms: _304  and  _306
REMARK  128  A    between atoms: _306  and  _307
REMARK  129  A    between atoms: _306  and  _309
REMARK  130  A    between atoms: _309  and  _310
REMARK  131  A    between atoms: _310  and  _311
REMARK  132  A    between atoms: _314  and  _316
REMARK  133  A    between atoms: _316  and  _317
REMARK  134  A    between atoms: _316  and  _319
REMARK  135  A    between atoms: _319  and  _320
REMARK  136  A    between atoms: _323  and  _325
REMARK  137  A    between atoms: _325  and  _326
REMARK  138  A    between atoms: _329  and  _331
REMARK  139  A    between atoms: _331  and  _332
REMARK  140  A    between atoms: _331  and  _334
REMARK  141  A    between atoms: _334  and  _335
REMARK  142  A    between atoms: _335  and  _458
REMARK  143  A    between atoms: _336  and  _338
REMARK  144  A    between atoms: _338  and  _339
REMARK  145  A    between atoms: _338  and  _341
REMARK  146  A    between atoms: _341  and  _342
REMARK  147  A    between atoms: _342  and  _343
REMARK  148  A    between atoms: _348  and  _350
REMARK  149  A    between atoms: _350  and  _351
REMARK  150  A    between atoms: _353  and  _355
REMARK  151  A    between atoms: _355  and  _356
REMARK  152  A    between atoms: _355  and  _358
REMARK  153  A    between atoms: _358  and  _359
REMARK  154  A    between atoms: _362  and  _364
REMARK  155  A    between atoms: _364  and  _365
REMARK  156  A    between atoms: _364  and  _367
REMARK  157  A    between atoms: _367  and  _368
REMARK  158  A    between atoms: _370  and  _372
REMARK  159  A    between atoms: _372  and  _373
REMARK  160  A    between atoms: _375  and  _377
REMARK  161  A    between atoms: _377  and  _378
REMARK  162  A    between atoms: _380  and  _382
REMARK  163  A    between atoms: _382  and  _383
REMARK  164  A    between atoms: _382  and  _385
REMARK  165  A    between atoms: _385  and  _386
REMARK  166  A    between atoms: _391  and  _393
REMARK  167  A    between atoms: _393  and  _394
REMARK  168  A    between atoms: _393  and  _396
REMARK  169  A    between atoms: _396  and  _397
REMARK  170  A    between atoms: _400  and  _402
REMARK  171  A    between atoms: _402  and  _403
REMARK  172  A    between atoms: _402  and  _405
REMARK  173  A    between atoms: _408  and  _410
REMARK  174  A    between atoms: _410  and  _411
REMARK  175  A    between atoms: _410  and  _413
REMARK  176  A    between atoms: _413  and  _414
REMARK  177  A    between atoms: _416  and  _418
REMARK  178  A    between atoms: _418  and  _419
REMARK  179  A    between atoms: _418  and  _421
REMARK  180  A    between atoms: _421  and  _422
REMARK  181  A    between atoms: _432  and  _434
REMARK  182  A    between atoms: _434  and  _435
REMARK  183  A    between atoms: _437  and  _439
REMARK  184  A    between atoms: _439  and  _440
REMARK  185  A    between atoms: _439  and  _442
REMARK  186  A    between atoms: _442  and  _443
REMARK  187  A    between atoms: _443  and  _444
REMARK  188  A    between atoms: _447  and  _449
REMARK  189  A    between atoms: _449  and  _450
REMARK  190  A    between atoms: _452  and  _454
REMARK  191  A    between atoms: _454  and  _455
REMARK  192  A    between atoms: _454  and  _457
REMARK  193  A    between atoms: _457  and  _458
REMARK  194  A    between atoms: _459  and  _461
REMARK  195  A    between atoms: _461  and  _462
REMARK  196  A    between atoms: _465  and  _467
REMARK  197  A    between atoms: _467  and  _468
REMARK  198  A    between atoms: _467  and  _470
REMARK  199  A    between atoms: _470  and  _471
REMARK  200  A    between atoms: _471  and  _472
REMARK  201  A    between atoms: _472  and  _473
REMARK  202  A    between atoms: _482  and  _484
REMARK  203  A    between atoms: _484  and  _485
REMARK  204  A    between atoms: _484  and  _487
REMARK  205  A    between atoms: _487  and  _488
REMARK  206  A    between atoms: _488  and  _489
REMARK  207  A    between atoms: _489  and  _490
REMARK  208  A    between atoms: _490  and  _491
REMARK  209  A    between atoms: _495  and  _497
REMARK  210  A    between atoms: _497  and  _498
REMARK  211  A    between atoms: _497  and  _500
REMARK  212  A    between atoms: _500  and  _501
REMARK  213  A    between atoms: _506  and  _507
REMARK  214  A    between atoms: _509  and  _511
REMARK  215  A    between atoms: _511  and  _512
REMARK  216  A    between atoms: _514  and  _516
REMARK  217  A    between atoms: _516  and  _517
REMARK  218  A    between atoms: _516  and  _519
REMARK  219  A    between atoms: _519  and  _520
REMARK  220  A    between atoms: _523  and  _525
REMARK  221  A    between atoms: _525  and  _526
REMARK  222  A    between atoms: _525  and  _528
REMARK  223  A    between atoms: _528  and  _529
REMARK  224  A    between atoms: _534  and  _535
REMARK  225  A    between atoms: _537  and  _539
REMARK  226  A    between atoms: _539  and  _540
REMARK  227  A    between atoms: _539  and  _542
REMARK  228  A    between atoms: _542  and  _543
REMARK                            x       y       z     vdW  Elec       q    Type
REMARK                         _______ _______ _______ _____ _____    ______ ____
ROOT
ATOM      1  O   HOH     1      -5.447  19.130  24.987  0.00  0.00    +0.000 OA
ENDROOT
TORSDOF 0
REMARK  Name = ../refined-set-2016/2y5f/2y5f_pocket.pdb
REMARK  228 active torsions:
REMARK  status: ('A' for Active; 'I' for Inactive)
REMARK    1  A    between atoms: _1  and  _5
REMARK    2  A    between atoms: _5  and  _6
REMARK    3  A    between atoms: _5  and  _8
REMARK    4  A    between atoms: _8  and  _9
REMARK    5  A    between atoms: _12  and  _14
REMARK    6  A    between atoms: _14  and  _15
REMARK    7  A    between atoms: _14  and  _17
REMARK    8  A    between atoms: _20  and  _22
REMARK    9  A    between atoms: _22  and  _23
REMARK   10  A    between atoms: _22  and  _25
REMARK   11  A    between atoms: _25  and  _26
REMARK   12  A    between atoms: _32  and  _34
REMARK   13  A    between atoms: _34  and  _35
REMARK   14  A    between atoms: _34  and  _37
REMARK   15  A    between atoms: _39  and  _41
REMARK   16  A    between atoms: _41  and  _42
REMARK   17  A    between atoms: _41  and  _44
REMARK   18  A    between atoms: _44  and  _45
REMARK   19  A    between atoms: _50  and  _52
REMARK   20  A    between atoms: _52  and  _53
REMARK   21  A    between atoms: _52  and  _55
REMARK   22  A    between atoms: _55  and  _56
REMARK   23  A    between atoms: _56  and  _57
REMARK   24  A    between atoms: _62  and  _64
REMARK   25  A    between atoms: _64  and  _65
REMARK   26  A    between atoms: _64  and  _67
REMARK   27  A    between atoms: _67  and  _68
REMARK   28  A    between atoms: _74  and  _76
REMARK   29  A    between atoms: _76  and  _77
REMARK   30  A    between atoms: _76  and  _79
REMARK   31  A    between atoms: _79  and  _80
REMARK   32  A    between atoms: _83  and  _85
REMARK   33  A    between atoms: _85  and  _86
REMARK   34  A    between atoms: _85  and  _88
REMARK   35  A    between atoms: _88  and  _89
REMARK   36  A    between atoms: _89  and  _90
REMARK   37  A    between atoms: _90  and  _91
REMARK   38  A    between atoms: _91  and  _92
REMARK   39  A    between atoms: _96  and  _98
REMARK   40  A    between atoms: _98  and  _99
REMARK   41  A    between atoms: _98  and  _101
REMARK   42  A    between atoms: _101  and  _102
REMARK   43  A    between atoms: _102  and  _103
REMARK   44  A    between atoms: _106  and  _108
REMARK   45  A    between atoms: _108  and  _109
REMARK   46  A    between atoms: _108  and  _111
REMARK   47  A    between atoms: _111  and  _112
REMARK   48  A    between atoms: _115  and  _117
REMARK   49  A    between atoms: _117  and  _118
REMARK   50  A    between atoms: _117  and  _120
REMARK   51  A    between atoms: _120  and  _121
REMARK   52  A    between atoms: _126  and  _127
REMARK   53  A    between atoms: _129  and  _131
REMARK   54  A    between atoms: _131  and  _132
REMARK   55  A    between atoms: _131  and  _134
REMARK   56  A    between atoms: _134  and  _135
REMARK   57  A    between atoms: _138  and  _140
REMARK   58  A    between atoms: _140  and  _141
REMARK   59  A    between atoms: _140  and  _143
REMARK   60  A    between atoms: _143  and  _144
REMARK   61  A    between atoms: _147  and  _149
REMARK   62  A    between atoms: _149  and  _150
REMARK   63  A    between atoms: _149  and  _152
REMARK   64  A    between atoms: _155  and  _157
REMARK   65  A    between atoms: _157  and  _158
REMARK   66  A    between atoms: _157  and  _160
REMARK   67  A    between atoms: _160  and  _161
REMARK   68  A    between atoms: _161  and  _162
REMARK   69  A    between atoms: _162  and  _163
REMARK   70  A    between atoms: _172  and  _174
REMARK   71  A    between atoms: _174  and  _175
REMARK   72  A    between atoms: _174  and  _177
REMARK   73  A    between atoms: _177  and  _178
REMARK   74  A    between atoms: _183  and  _185
REMARK   75  A    between atoms: _185  and  _186
REMARK   76  A    between atoms: _185  and  _188
REMARK   77  A    between atoms: _188  and  _189
REMARK   78  A    between atoms: _189  and  _190
REMARK   79  A    between atoms: _193  and  _195
REMARK   80  A    between atoms: _195  and  _196
REMARK   81  A    between atoms: _195  and  _198
REMARK   82  A    between atoms: _198  and  _199
REMARK   83  A    between atoms: _199  and  _200
REMARK   84  A    between atoms: _200  and  _201
REMARK   85  A    between atoms: _201  and  _202
REMARK   86  A    between atoms: _206  and  _208
REMARK   87  A    between atoms: _208  and  _209
REMARK   88  A    between atoms: _211  and  _213
REMARK   89  A    between atoms: _213  and  _214
REMARK   90  A    between atoms: _213  and  _216
REMARK   91  A    between atoms: _219  and  _221
REMARK   92  A    between atoms: _221  and  _222
REMARK   93  A    between atoms: _221  and  _224
REMARK   94  A    between atoms: _224  and  _225
REMARK   95  A    between atoms: _227  and  _229
REMARK   96  A    between atoms: _229  and  _230
REMARK   97  A    between atoms: _229  and  _232
REMARK   98  A    between atoms: _232  and  _233
REMARK   99  A    between atoms: _235  and  _237
REMARK  100  A    between atoms: _237  and  _238
REMARK  101  A    between atoms: _237  and  _240
REMARK  102  A    between atoms: _240  and  _241
REMARK  103  A    between atoms: _247  and  _249
REMARK  104  A    between atoms: _249  and  _250
REMARK  105  A    between atoms: _249  and  _252
REMARK  106  A    between atoms: _252  and  _253
REMARK  107  A    between atoms: _256  and  _258
REMARK  108  A    between atoms: _258  and  _259
REMARK  109  A    between atoms: _258  and  _261
REMARK  110  A    between atoms: _261  and  _262
REMARK  111  A    between atoms: _265  and  _267
REMARK  112  A    between atoms: _267  and  _268
REMARK  113  A    between atoms: _267  and  _270
REMARK  114  A    between atoms: _270  and  _271
REMARK  115  A    between atoms: _271  and  _272
REMARK  116  A    between atoms: _274  and  _276
REMARK  117  A    between atoms: _276  and  _277
REMARK  118  A    between atoms: _276  and  _279
REMARK  119  A    between atoms: _279  and  _280
REMARK  120  A    between atoms: _286  and  _288
REMARK  121  A    between atoms: _288  and  _289
REMARK  122  A    between atoms: _288  and  _291
REMARK  123  A    between atoms: _293  and  _295
REMARK  124  A    between atoms: _295  and  _296
REMARK  125  A    between atoms: _299  and  _301
REMARK  126  A    between atoms: _301  and  _302
REMARK  127  A    between atoms: _304  and  _306
REMARK  128  A    between atoms: _306  and  _307
REMARK  129  A    between atoms: _306  and  _309
REMARK  130  A    between atoms: _309  and  _310
REMARK  131  A    between atoms: _310  and  _311
REMARK  132  A    between atoms: _314  and  _316
REMARK  133  A    between atoms: _316  and  _317
REMARK  134  A    between atoms: _316  and  _319
REMARK  135  A    between atoms: _319  and  _320
REMARK  136  A    between atoms: _323  and  _325
REMARK  137  A    between atoms: _325  and  _326
REMARK  138  A    between atoms: _329  and  _331
REMARK  139  A    between atoms: _331  and  _332
REMARK  140  A    between atoms: _331  and  _334
REMARK  141  A    between atoms: _334  and  _335
REMARK  142  A    between atoms: _335  and  _458
REMARK  143  A    between atoms: _336  and  _338
REMARK  144  A    between atoms: _338  and  _339
REMARK  145  A    between atoms: _338  and  _341
REMARK  146  A    between atoms: _341  and  _342
REMARK  147  A    between atoms: _342  and  _343
REMARK  148  A    between atoms: _348  and  _350
REMARK  149  A    between atoms: _350  and  _351
REMARK  150  A    between atoms: _353  and  _355
REMARK  151  A    between atoms: _355  and  _356
REMARK  152  A    between atoms: _355  and  _358
REMARK  153  A    between atoms: _358  and  _359
REMARK  154  A    between atoms: _362  and  _364
REMARK  155  A    between atoms: _364  and  _365
REMARK  156  A    between atoms: _364  and  _367
REMARK  157  A    between atoms: _367  and  _368
REMARK  158  A    between atoms: _370  and  _372
REMARK  159  A    between atoms: _372  and  _373
REMARK  160  A    between atoms: _375  and  _377
REMARK  161  A    between atoms: _377  and  _378
REMARK  162  A    between atoms: _380  and  _382
REMARK  163  A    between atoms: _382  and  _383
REMARK  164  A    between atoms: _382  and  _385
REMARK  165  A    between atoms: _385  and  _386
REMARK  166  A    between atoms: _391  and  _393
REMARK  167  A    between atoms: _393  and  _394
REMARK  168  A    between atoms: _393  and  _396
REMARK  169  A    between atoms: _396  and  _397
REMARK  170  A    between atoms: _400  and  _402
REMARK  171  A    between atoms: _402  and  _403
REMARK  172  A    between atoms: _402  and  _405
REMARK  173  A    between atoms: _408  and  _410
REMARK  174  A    between atoms: _410  and  _411
REMARK  175  A    between atoms: _410  and  _413
REMARK  176  A    between atoms: _413  and  _414
REMARK  177  A    between atoms: _416  and  _418
REMARK  178  A    between atoms: _418  and  _419
REMARK  179  A    between atoms: _418  and  _421
REMARK  180  A    between atoms: _421  and  _422
REMARK  181  A    between atoms: _432  and  _434
REMARK  182  A    between atoms: _434  and  _435
REMARK  183  A    between atoms: _437  and  _439
REMARK  184  A    between atoms: _439  and  _440
REMARK  185  A    between atoms: _439  and  _442
REMARK  186  A    between atoms: _442  and  _443
REMARK  187  A    between atoms: _443  and  _444
REMARK  188  A    between atoms: _447  and  _449
REMARK  189  A    between atoms: _449  and  _450
REMARK  190  A    between atoms: _452  and  _454
REMARK  191  A    between atoms: _454  and  _455
REMARK  192  A    between atoms: _454  and  _457
REMARK  193  A    between atoms: _457  and  _458
REMARK  194  A    between atoms: _459  and  _461
REMARK  195  A    between atoms: _461  and  _462
REMARK  196  A    between atoms: _465  and  _467
REMARK  197  A    between atoms: _467  and  _468
REMARK  198  A    between atoms: _467  and  _470
REMARK  199  A    between atoms: _470  and  _471
REMARK  200  A    between atoms: _471  and  _472
REMARK  201  A    between atoms: _472  and  _473
REMARK  202  A    between atoms: _482  and  _484
REMARK  203  A    between atoms: _484  and  _485
REMARK  204  A    between atoms: _484  and  _487
REMARK  205  A    between atoms: _487  and  _488
REMARK  206  A    between atoms: _488  and  _489
REMARK  207  A    between atoms: _489  and  _490
REMARK  208  A    between atoms: _490  and  _491
REMARK  209  A    between atoms: _495  and  _497
REMARK  210  A    between atoms: _497  and  _498
REMARK  211  A    between atoms: _497  and  _500
REMARK  212  A    between atoms: _500  and  _501
REMARK  213  A    between atoms: _506  and  _507
REMARK  214  A    between atoms: _509  and  _511
REMARK  215  A    between atoms: _511  and  _512
REMARK  216  A    between atoms: _514  and  _516
REMARK  217  A    between atoms: _516  and  _517
REMARK  218  A    between atoms: _516  and  _519
REMARK  219  A    between atoms: _519  and  _520
REMARK  220  A    between atoms: _523  and  _525
REMARK  221  A    between atoms: _525  and  _526
REMARK  222  A    between atoms: _525  and  _528
REMARK  223  A    between atoms: _528  and  _529
REMARK  224  A    between atoms: _534  and  _535
REMARK  225  A    between atoms: _537  and  _539
REMARK  226  A    between atoms: _539  and  _540
REMARK  227  A    between atoms: _539  and  _542
REMARK  228  A    between atoms: _542  and  _543
REMARK                            x       y       z     vdW  Elec       q    Type
REMARK                         _______ _______ _______ _____ _____    ______ ____
ROOT
ATOM      1  O   HOH     1      -3.746  19.662  23.315  0.00  0.00    +0.000 OA
ENDROOT
TORSDOF 0
REMARK  Name = ../refined-set-2016/2y5f/2y5f_pocket.pdb
REMARK  228 active torsions:
REMARK  status: ('A' for Active; 'I' for Inactive)
REMARK    1  A    between atoms: _1  and  _5
REMARK    2  A    between atoms: _5  and  _6
REMARK    3  A    between atoms: _5  and  _8
REMARK    4  A    between atoms: _8  and  _9
REMARK    5  A    between atoms: _12  and  _14
REMARK    6  A    between atoms: _14  and  _15
REMARK    7  A    between atoms: _14  and  _17
REMARK    8  A    between atoms: _20  and  _22
REMARK    9  A    between atoms: _22  and  _23
REMARK   10  A    between atoms: _22  and  _25
REMARK   11  A    between atoms: _25  and  _26
REMARK   12  A    between atoms: _32  and  _34
REMARK   13  A    between atoms: _34  and  _35
REMARK   14  A    between atoms: _34  and  _37
REMARK   15  A    between atoms: _39  and  _41
REMARK   16  A    between atoms: _41  and  _42
REMARK   17  A    between atoms: _41  and  _44
REMARK   18  A    between atoms: _44  and  _45
REMARK   19  A    between atoms: _50  and  _52
REMARK   20  A    between atoms: _52  and  _53
REMARK   21  A    between atoms: _52  and  _55
REMARK   22  A    between atoms: _55  and  _56
REMARK   23  A    between atoms: _56  and  _57
REMARK   24  A    between atoms: _62  and  _64
REMARK   25  A    between atoms: _64  and  _65
REMARK   26  A    between atoms: _64  and  _67
REMARK   27  A    between atoms: _67  and  _68
REMARK   28  A    between atoms: _74  and  _76
REMARK   29  A    between atoms: _76  and  _77
REMARK   30  A    between atoms: _76  and  _79
REMARK   31  A    between atoms: _79  and  _80
REMARK   32  A    between atoms: _83  and  _85
REMARK   33  A    between atoms: _85  and  _86
REMARK   34  A    between atoms: _85  and  _88
REMARK   35  A    between atoms: _88  and  _89
REMARK   36  A    between atoms: _89  and  _90
REMARK   37  A    between atoms: _90  and  _91
REMARK   38  A    between atoms: _91  and  _92
REMARK   39  A    between atoms: _96  and  _98
REMARK   40  A    between atoms: _98  and  _99
REMARK   41  A    between atoms: _98  and  _101
REMARK   42  A    between atoms: _101  and  _102
REMARK   43  A    between atoms: _102  and  _103
REMARK   44  A    between atoms: _106  and  _108
REMARK   45  A    between atoms: _108  and  _109
REMARK   46  A    between atoms: _108  and  _111
REMARK   47  A    between atoms: _111  and  _112
REMARK   48  A    between atoms: _115  and  _117
REMARK   49  A    between atoms: _117  and  _118
REMARK   50  A    between atoms: _117  and  _120
REMARK   51  A    between atoms: _120  and  _121
REMARK   52  A    between atoms: _126  and  _127
REMARK   53  A    between atoms: _129  and  _131
REMARK   54  A    between atoms: _131  and  _132
REMARK   55  A    between atoms: _131  and  _134
REMARK   56  A    between atoms: _134  and  _135
REMARK   57  A    between atoms: _138  and  _140
REMARK   58  A    between atoms: _140  and  _141
REMARK   59  A    between atoms: _140  and  _143
REMARK   60  A    between atoms: _143  and  _144
REMARK   61  A    between atoms: _147  and  _149
REMARK   62  A    between atoms: _149  and  _150
REMARK   63  A    between atoms: _149  and  _152
REMARK   64  A    between atoms: _155  and  _157
REMARK   65  A    between atoms: _157  and  _158
REMARK   66  A    between atoms: _157  and  _160
REMARK   67  A    between atoms: _160  and  _161
REMARK   68  A    between atoms: _161  and  _162
REMARK   69  A    between atoms: _162  and  _163
REMARK   70  A    between atoms: _172  and  _174
REMARK   71  A    between atoms: _174  and  _175
REMARK   72  A    between atoms: _174  and  _177
REMARK   73  A    between atoms: _177  and  _178
REMARK   74  A    between atoms: _183  and  _185
REMARK   75  A    between atoms: _185  and  _186
REMARK   76  A    between atoms: _185  and  _188
REMARK   77  A    between atoms: _188  and  _189
REMARK   78  A    between atoms: _189  and  _190
REMARK   79  A    between atoms: _193  and  _195
REMARK   80  A    between atoms: _195  and  _196
REMARK   81  A    between atoms: _195  and  _198
REMARK   82  A    between atoms: _198  and  _199
REMARK   83  A    between atoms: _199  and  _200
REMARK   84  A    between atoms: _200  and  _201
REMARK   85  A    between atoms: _201  and  _202
REMARK   86  A    between atoms: _206  and  _208
REMARK   87  A    between atoms: _208  and  _209
REMARK   88  A    between atoms: _211  and  _213
REMARK   89  A    between atoms: _213  and  _214
REMARK   90  A    between atoms: _213  and  _216
REMARK   91  A    between atoms: _219  and  _221
REMARK   92  A    between atoms: _221  and  _222
REMARK   93  A    between atoms: _221  and  _224
REMARK   94  A    between atoms: _224  and  _225
REMARK   95  A    between atoms: _227  and  _229
REMARK   96  A    between atoms: _229  and  _230
REMARK   97  A    between atoms: _229  and  _232
REMARK   98  A    between atoms: _232  and  _233
REMARK   99  A    between atoms: _235  and  _237
REMARK  100  A    between atoms: _237  and  _238
REMARK  101  A    between atoms: _237  and  _240
REMARK  102  A    between atoms: _240  and  _241
REMARK  103  A    between atoms: _247  and  _249
REMARK  104  A    between atoms: _249  and  _250
REMARK  105  A    between atoms: _249  and  _252
REMARK  106  A    between atoms: _252  and  _253
REMARK  107  A    between atoms: _256  and  _258
REMARK  108  A    between atoms: _258  and  _259
REMARK  109  A    between atoms: _258  and  _261
REMARK  110  A    between atoms: _261  and  _262
REMARK  111  A    between atoms: _265  and  _267
REMARK  112  A    between atoms: _267  and  _268
REMARK  113  A    between atoms: _267  and  _270
REMARK  114  A    between atoms: _270  and  _271
REMARK  115  A    between atoms: _271  and  _272
REMARK  116  A    between atoms: _274  and  _276
REMARK  117  A    between atoms: _276  and  _277
REMARK  118  A    between atoms: _276  and  _279
REMARK  119  A    between atoms: _279  and  _280
REMARK  120  A    between atoms: _286  and  _288
REMARK  121  A    between atoms: _288  and  _289
REMARK  122  A    between atoms: _288  and  _291
REMARK  123  A    between atoms: _293  and  _295
REMARK  124  A    between atoms: _295  and  _296
REMARK  125  A    between atoms: _299  and  _301
REMARK  126  A    between atoms: _301  and  _302
REMARK  127  A    between atoms: _304  and  _306
REMARK  128  A    between atoms: _306  and  _307
REMARK  129  A    between atoms: _306  and  _309
REMARK  130  A    between atoms: _309  and  _310
REMARK  131  A    between atoms: _310  and  _311
REMARK  132  A    between atoms: _314  and  _316
REMARK  133  A    between atoms: _316  and  _317
REMARK  134  A    between atoms: _316  and  _319
REMARK  135  A    between atoms: _319  and  _320
REMARK  136  A    between atoms: _323  and  _325
REMARK  137  A    between atoms: _325  and  _326
REMARK  138  A    between atoms: _329  and  _331
REMARK  139  A    between atoms: _331  and  _332
REMARK  140  A    between atoms: _331  and  _334
REMARK  141  A    between atoms: _334  and  _335
REMARK  142  A    between atoms: _335  and  _458
REMARK  143  A    between atoms: _336  and  _338
REMARK  144  A    between atoms: _338  and  _339
REMARK  145  A    between atoms: _338  and  _341
REMARK  146  A    between atoms: _341  and  _342
REMARK  147  A    between atoms: _342  and  _343
REMARK  148  A    between atoms: _348  and  _350
REMARK  149  A    between atoms: _350  and  _351
REMARK  150  A    between atoms: _353  and  _355
REMARK  151  A    between atoms: _355  and  _356
REMARK  152  A    between atoms: _355  and  _358
REMARK  153  A    between atoms: _358  and  _359
REMARK  154  A    between atoms: _362  and  _364
REMARK  155  A    between atoms: _364  and  _365
REMARK  156  A    between atoms: _364  and  _367
REMARK  157  A    between atoms: _367  and  _368
REMARK  158  A    between atoms: _370  and  _372
REMARK  159  A    between atoms: _372  and  _373
REMARK  160  A    between atoms: _375  and  _377
REMARK  161  A    between atoms: _377  and  _378
REMARK  162  A    between atoms: _380  and  _382
REMARK  163  A    between atoms: _382  and  _383
REMARK  164  A    between atoms: _382  and  _385
REMARK  165  A    between atoms: _385  and  _386
REMARK  166  A    between atoms: _391  and  _393
REMARK  167  A    between atoms: _393  and  _394
REMARK  168  A    between atoms: _393  and  _396
REMARK  169  A    between atoms: _396  and  _397
REMARK  170  A    between atoms: _400  and  _402
REMARK  171  A    between atoms: _402  and  _403
REMARK  172  A    between atoms: _402  and  _405
REMARK  173  A    between atoms: _408  and  _410
REMARK  174  A    between atoms: _410  and  _411
REMARK  175  A    between atoms: _410  and  _413
REMARK  176  A    between atoms: _413  and  _414
REMARK  177  A    between atoms: _416  and  _418
REMARK  178  A    between atoms: _418  and  _419
REMARK  179  A    between atoms: _418  and  _421
REMARK  180  A    between atoms: _421  and  _422
REMARK  181  A    between atoms: _432  and  _434
REMARK  182  A    between atoms: _434  and  _435
REMARK  183  A    between atoms: _437  and  _439
REMARK  184  A    between atoms: _439  and  _440
REMARK  185  A    between atoms: _439  and  _442
REMARK  186  A    between atoms: _442  and  _443
REMARK  187  A    between atoms: _443  and  _444
REMARK  188  A    between atoms: _447  and  _449
REMARK  189  A    between atoms: _449  and  _450
REMARK  190  A    between atoms: _452  and  _454
REMARK  191  A    between atoms: _454  and  _455
REMARK  192  A    between atoms: _454  and  _457
REMARK  193  A    between atoms: _457  and  _458
REMARK  194  A    between atoms: _459  and  _461
REMARK  195  A    between atoms: _461  and  _462
REMARK  196  A    between atoms: _465  and  _467
REMARK  197  A    between atoms: _467  and  _468
REMARK  198  A    between atoms: _467  and  _470
REMARK  199  A    between atoms: _470  and  _471
REMARK  200  A    between atoms: _471  and  _472
REMARK  201  A    between atoms: _472  and  _473
REMARK  202  A    between atoms: _482  and  _484
REMARK  203  A    between atoms: _484  and  _485
REMARK  204  A    between atoms: _484  and  _487
REMARK  205  A    between atoms: _487  and  _488
REMARK  206  A    between atoms: _488  and  _489
REMARK  207  A    between atoms: _489  and  _490
REMARK  208  A    between atoms: _490  and  _491
REMARK  209  A    between atoms: _495  and  _497
REMARK  210  A    between atoms: _497  and  _498
REMARK  211  A    between atoms: _497  and  _500
REMARK  212  A    between atoms: _500  and  _501
REMARK  213  A    between atoms: _506  and  _507
REMARK  214  A    between atoms: _509  and  _511
REMARK  215  A    between atoms: _511  and  _512
REMARK  216  A    between atoms: _514  and  _516
REMARK  217  A    between atoms: _516  and  _517
REMARK  218  A    between atoms: _516  and  _519
REMARK  219  A    between atoms: _519  and  _520
REMARK  220  A    between atoms: _523  and  _525
REMARK  221  A    between atoms: _525  and  _526
REMARK  222  A    between atoms: _525  and  _528
REMARK  223  A    between atoms: _528  and  _529
REMARK  224  A    between atoms: _534  and  _535
REMARK  225  A    between atoms: _537  and  _539
REMARK  226  A    between atoms: _539  and  _540
REMARK  227  A    between atoms: _539  and  _542
REMARK  228  A    between atoms: _542  and  _543
REMARK                            x       y       z     vdW  Elec       q    Type
REMARK                         _______ _______ _______ _____ _____    ______ ____
ROOT
ATOM      1  O   HOH     1       1.331  19.660  26.070  0.00  0.00    +0.000 OA
ENDROOT
TORSDOF 0
REMARK  Name = ../refined-set-2016/2y5f/2y5f_pocket.pdb
REMARK  228 active torsions:
REMARK  status: ('A' for Active; 'I' for Inactive)
REMARK    1  A    between atoms: _1  and  _5
REMARK    2  A    between atoms: _5  and  _6
REMARK    3  A    between atoms: _5  and  _8
REMARK    4  A    between atoms: _8  and  _9
REMARK    5  A    between atoms: _12  and  _14
REMARK    6  A    between atoms: _14  and  _15
REMARK    7  A    between atoms: _14  and  _17
REMARK    8  A    between atoms: _20  and  _22
REMARK    9  A    between atoms: _22  and  _23
REMARK   10  A    between atoms: _22  and  _25
REMARK   11  A    between atoms: _25  and  _26
REMARK   12  A    between atoms: _32  and  _34
REMARK   13  A    between atoms: _34  and  _35
REMARK   14  A    between atoms: _34  and  _37
REMARK   15  A    between atoms: _39  and  _41
REMARK   16  A    between atoms: _41  and  _42
REMARK   17  A    between atoms: _41  and  _44
REMARK   18  A    between atoms: _44  and  _45
REMARK   19  A    between atoms: _50  and  _52
REMARK   20  A    between atoms: _52  and  _53
REMARK   21  A    between atoms: _52  and  _55
REMARK   22  A    between atoms: _55  and  _56
REMARK   23  A    between atoms: _56  and  _57
REMARK   24  A    between atoms: _62  and  _64
REMARK   25  A    between atoms: _64  and  _65
REMARK   26  A    between atoms: _64  and  _67
REMARK   27  A    between atoms: _67  and  _68
REMARK   28  A    between atoms: _74  and  _76
REMARK   29  A    between atoms: _76  and  _77
REMARK   30  A    between atoms: _76  and  _79
REMARK   31  A    between atoms: _79  and  _80
REMARK   32  A    between atoms: _83  and  _85
REMARK   33  A    between atoms: _85  and  _86
REMARK   34  A    between atoms: _85  and  _88
REMARK   35  A    between atoms: _88  and  _89
REMARK   36  A    between atoms: _89  and  _90
REMARK   37  A    between atoms: _90  and  _91
REMARK   38  A    between atoms: _91  and  _92
REMARK   39  A    between atoms: _96  and  _98
REMARK   40  A    between atoms: _98  and  _99
REMARK   41  A    between atoms: _98  and  _101
REMARK   42  A    between atoms: _101  and  _102
REMARK   43  A    between atoms: _102  and  _103
REMARK   44  A    between atoms: _106  and  _108
REMARK   45  A    between atoms: _108  and  _109
REMARK   46  A    between atoms: _108  and  _111
REMARK   47  A    between atoms: _111  and  _112
REMARK   48  A    between atoms: _115  and  _117
REMARK   49  A    between atoms: _117  and  _118
REMARK   50  A    between atoms: _117  and  _120
REMARK   51  A    between atoms: _120  and  _121
REMARK   52  A    between atoms: _126  and  _127
REMARK   53  A    between atoms: _129  and  _131
REMARK   54  A    between atoms: _131  and  _132
REMARK   55  A    between atoms: _131  and  _134
REMARK   56  A    between atoms: _134  and  _135
REMARK   57  A    between atoms: _138  and  _140
REMARK   58  A    between atoms: _140  and  _141
REMARK   59  A    between atoms: _140  and  _143
REMARK   60  A    between atoms: _143  and  _144
REMARK   61  A    between atoms: _147  and  _149
REMARK   62  A    between atoms: _149  and  _150
REMARK   63  A    between atoms: _149  and  _152
REMARK   64  A    between atoms: _155  and  _157
REMARK   65  A    between atoms: _157  and  _158
REMARK   66  A    between atoms: _157  and  _160
REMARK   67  A    between atoms: _160  and  _161
REMARK   68  A    between atoms: _161  and  _162
REMARK   69  A    between atoms: _162  and  _163
REMARK   70  A    between atoms: _172  and  _174
REMARK   71  A    between atoms: _174  and  _175
REMARK   72  A    between atoms: _174  and  _177
REMARK   73  A    between atoms: _177  and  _178
REMARK   74  A    between atoms: _183  and  _185
REMARK   75  A    between atoms: _185  and  _186
REMARK   76  A    between atoms: _185  and  _188
REMARK   77  A    between atoms: _188  and  _189
REMARK   78  A    between atoms: _189  and  _190
REMARK   79  A    between atoms: _193  and  _195
REMARK   80  A    between atoms: _195  and  _196
REMARK   81  A    between atoms: _195  and  _198
REMARK   82  A    between atoms: _198  and  _199
REMARK   83  A    between atoms: _199  and  _200
REMARK   84  A    between atoms: _200  and  _201
REMARK   85  A    between atoms: _201  and  _202
REMARK   86  A    between atoms: _206  and  _208
REMARK   87  A    between atoms: _208  and  _209
REMARK   88  A    between atoms: _211  and  _213
REMARK   89  A    between atoms: _213  and  _214
REMARK   90  A    between atoms: _213  and  _216
REMARK   91  A    between atoms: _219  and  _221
REMARK   92  A    between atoms: _221  and  _222
REMARK   93  A    between atoms: _221  and  _224
REMARK   94  A    between atoms: _224  and  _225
REMARK   95  A    between atoms: _227  and  _229
REMARK   96  A    between atoms: _229  and  _230
REMARK   97  A    between atoms: _229  and  _232
REMARK   98  A    between atoms: _232  and  _233
REMARK   99  A    between atoms: _235  and  _237
REMARK  100  A    between atoms: _237  and  _238
REMARK  101  A    between atoms: _237  and  _240
REMARK  102  A    between atoms: _240  and  _241
REMARK  103  A    between atoms: _247  and  _249
REMARK  104  A    between atoms: _249  and  _250
REMARK  105  A    between atoms: _249  and  _252
REMARK  106  A    between atoms: _252  and  _253
REMARK  107  A    between atoms: _256  and  _258
REMARK  108  A    between atoms: _258  and  _259
REMARK  109  A    between atoms: _258  and  _261
REMARK  110  A    between atoms: _261  and  _262
REMARK  111  A    between atoms: _265  and  _267
REMARK  112  A    between atoms: _267  and  _268
REMARK  113  A    between atoms: _267  and  _270
REMARK  114  A    between atoms: _270  and  _271
REMARK  115  A    between atoms: _271  and  _272
REMARK  116  A    between atoms: _274  and  _276
REMARK  117  A    between atoms: _276  and  _277
REMARK  118  A    between atoms: _276  and  _279
REMARK  119  A    between atoms: _279  and  _280
REMARK  120  A    between atoms: _286  and  _288
REMARK  121  A    between atoms: _288  and  _289
REMARK  122  A    between atoms: _288  and  _291
REMARK  123  A    between atoms: _293  and  _295
REMARK  124  A    between atoms: _295  and  _296
REMARK  125  A    between atoms: _299  and  _301
REMARK  126  A    between atoms: _301  and  _302
REMARK  127  A    between atoms: _304  and  _306
REMARK  128  A    between atoms: _306  and  _307
REMARK  129  A    between atoms: _306  and  _309
REMARK  130  A    between atoms: _309  and  _310
REMARK  131  A    between atoms: _310  and  _311
REMARK  132  A    between atoms: _314  and  _316
REMARK  133  A    between atoms: _316  and  _317
REMARK  134  A    between atoms: _316  and  _319
REMARK  135  A    between atoms: _319  and  _320
REMARK  136  A    between atoms: _323  and  _325
REMARK  137  A    between atoms: _325  and  _326
REMARK  138  A    between atoms: _329  and  _331
REMARK  139  A    between atoms: _331  and  _332
REMARK  140  A    between atoms: _331  and  _334
REMARK  141  A    between atoms: _334  and  _335
REMARK  142  A    between atoms: _335  and  _458
REMARK  143  A    between atoms: _336  and  _338
REMARK  144  A    between atoms: _338  and  _339
REMARK  145  A    between atoms: _338  and  _341
REMARK  146  A    between atoms: _341  and  _342
REMARK  147  A    between atoms: _342  and  _343
REMARK  148  A    between atoms: _348  and  _350
REMARK  149  A    between atoms: _350  and  _351
REMARK  150  A    between atoms: _353  and  _355
REMARK  151  A    between atoms: _355  and  _356
REMARK  152  A    between atoms: _355  and  _358
REMARK  153  A    between atoms: _358  and  _359
REMARK  154  A    between atoms: _362  and  _364
REMARK  155  A    between atoms: _364  and  _365
REMARK  156  A    between atoms: _364  and  _367
REMARK  157  A    between atoms: _367  and  _368
REMARK  158  A    between atoms: _370  and  _372
REMARK  159  A    between atoms: _372  and  _373
REMARK  160  A    between atoms: _375  and  _377
REMARK  161  A    between atoms: _377  and  _378
REMARK  162  A    between atoms: _380  and  _382
REMARK  163  A    between atoms: _382  and  _383
REMARK  164  A    between atoms: _382  and  _385
REMARK  165  A    between atoms: _385  and  _386
REMARK  166  A    between atoms: _391  and  _393
REMARK  167  A    between atoms: _393  and  _394
REMARK  168  A    between atoms: _393  and  _396
REMARK  169  A    between atoms: _396  and  _397
REMARK  170  A    between atoms: _400  and  _402
REMARK  171  A    between atoms: _402  and  _403
REMARK  172  A    between atoms: _402  and  _405
REMARK  173  A    between atoms: _408  and  _410
REMARK  174  A    between atoms: _410  and  _411
REMARK  175  A    between atoms: _410  and  _413
REMARK  176  A    between atoms: _413  and  _414
REMARK  177  A    between atoms: _416  and  _418
REMARK  178  A    between atoms: _418  and  _419
REMARK  179  A    between atoms: _418  and  _421
REMARK  180  A    between atoms: _421  and  _422
REMARK  181  A    between atoms: _432  and  _434
REMARK  182  A    between atoms: _434  and  _435
REMARK  183  A    between atoms: _437  and  _439
REMARK  184  A    between atoms: _439  and  _440
REMARK  185  A    between atoms: _439  and  _442
REMARK  186  A    between atoms: _442  and  _443
REMARK  187  A    between atoms: _443  and  _444
REMARK  188  A    between atoms: _447  and  _449
REMARK  189  A    between atoms: _449  and  _450
REMARK  190  A    between atoms: _452  and  _454
REMARK  191  A    between atoms: _454  and  _455
REMARK  192  A    between atoms: _454  and  _457
REMARK  193  A    between atoms: _457  and  _458
REMARK  194  A    between atoms: _459  and  _461
REMARK  195  A    between atoms: _461  and  _462
REMARK  196  A    between atoms: _465  and  _467
REMARK  197  A    between atoms: _467  and  _468
REMARK  198  A    between atoms: _467  and  _470
REMARK  199  A    between atoms: _470  and  _471
REMARK  200  A    between atoms: _471  and  _472
REMARK  201  A    between atoms: _472  and  _473
REMARK  202  A    between atoms: _482  and  _484
REMARK  203  A    between atoms: _484  and  _485
REMARK  204  A    between atoms: _484  and  _487
REMARK  205  A    between atoms: _487  and  _488
REMARK  206  A    between atoms: _488  and  _489
REMARK  207  A    between atoms: _489  and  _490
REMARK  208  A    between atoms: _490  and  _491
REMARK  209  A    between atoms: _495  and  _497
REMARK  210  A    between atoms: _497  and  _498
REMARK  211  A    between atoms: _497  and  _500
REMARK  212  A    between atoms: _500  and  _501
REMARK  213  A    between atoms: _506  and  _507
REMARK  214  A    between atoms: _509  and  _511
REMARK  215  A    between atoms: _511  and  _512
REMARK  216  A    between atoms: _514  and  _516
REMARK  217  A    between atoms: _516  and  _517
REMARK  218  A    between atoms: _516  and  _519
REMARK  219  A    between atoms: _519  and  _520
REMARK  220  A    between atoms: _523  and  _525
REMARK  221  A    between atoms: _525  and  _526
REMARK  222  A    between atoms: _525  and  _528
REMARK  223  A    between atoms: _528  and  _529
REMARK  224  A    between atoms: _534  and  _535
REMARK  225  A    between atoms: _537  and  _539
REMARK  226  A    between atoms: _539  and  _540
REMARK  227  A    between atoms: _539  and  _542
REMARK  228  A    between atoms: _542  and  _543
REMARK                            x       y       z     vdW  Elec       q    Type
REMARK                         _______ _______ _______ _____ _____    ______ ____
ROOT
ATOM      1  O   HOH     1       3.491  17.792  24.621  0.00  0.00    +0.000 OA
ENDROOT
TORSDOF 0
REMARK  Name = ../refined-set-2016/2y5f/2y5f_pocket.pdb
REMARK  228 active torsions:
REMARK  status: ('A' for Active; 'I' for Inactive)
REMARK    1  A    between atoms: _1  and  _5
REMARK    2  A    between atoms: _5  and  _6
REMARK    3  A    between atoms: _5  and  _8
REMARK    4  A    between atoms: _8  and  _9
REMARK    5  A    between atoms: _12  and  _14
REMARK    6  A    between atoms: _14  and  _15
REMARK    7  A    between atoms: _14  and  _17
REMARK    8  A    between atoms: _20  and  _22
REMARK    9  A    between atoms: _22  and  _23
REMARK   10  A    between atoms: _22  and  _25
REMARK   11  A    between atoms: _25  and  _26
REMARK   12  A    between atoms: _32  and  _34
REMARK   13  A    between atoms: _34  and  _35
REMARK   14  A    between atoms: _34  and  _37
REMARK   15  A    between atoms: _39  and  _41
REMARK   16  A    between atoms: _41  and  _42
REMARK   17  A    between atoms: _41  and  _44
REMARK   18  A    between atoms: _44  and  _45
REMARK   19  A    between atoms: _50  and  _52
REMARK   20  A    between atoms: _52  and  _53
REMARK   21  A    between atoms: _52  and  _55
REMARK   22  A    between atoms: _55  and  _56
REMARK   23  A    between atoms: _56  and  _57
REMARK   24  A    between atoms: _62  and  _64
REMARK   25  A    between atoms: _64  and  _65
REMARK   26  A    between atoms: _64  and  _67
REMARK   27  A    between atoms: _67  and  _68
REMARK   28  A    between atoms: _74  and  _76
REMARK   29  A    between atoms: _76  and  _77
REMARK   30  A    between atoms: _76  and  _79
REMARK   31  A    between atoms: _79  and  _80
REMARK   32  A    between atoms: _83  and  _85
REMARK   33  A    between atoms: _85  and  _86
REMARK   34  A    between atoms: _85  and  _88
REMARK   35  A    between atoms: _88  and  _89
REMARK   36  A    between atoms: _89  and  _90
REMARK   37  A    between atoms: _90  and  _91
REMARK   38  A    between atoms: _91  and  _92
REMARK   39  A    between atoms: _96  and  _98
REMARK   40  A    between atoms: _98  and  _99
REMARK   41  A    between atoms: _98  and  _101
REMARK   42  A    between atoms: _101  and  _102
REMARK   43  A    between atoms: _102  and  _103
REMARK   44  A    between atoms: _106  and  _108
REMARK   45  A    between atoms: _108  and  _109
REMARK   46  A    between atoms: _108  and  _111
REMARK   47  A    between atoms: _111  and  _112
REMARK   48  A    between atoms: _115  and  _117
REMARK   49  A    between atoms: _117  and  _118
REMARK   50  A    between atoms: _117  and  _120
REMARK   51  A    between atoms: _120  and  _121
REMARK   52  A    between atoms: _126  and  _127
REMARK   53  A    between atoms: _129  and  _131
REMARK   54  A    between atoms: _131  and  _132
REMARK   55  A    between atoms: _131  and  _134
REMARK   56  A    between atoms: _134  and  _135
REMARK   57  A    between atoms: _138  and  _140
REMARK   58  A    between atoms: _140  and  _141
REMARK   59  A    between atoms: _140  and  _143
REMARK   60  A    between atoms: _143  and  _144
REMARK   61  A    between atoms: _147  and  _149
REMARK   62  A    between atoms: _149  and  _150
REMARK   63  A    between atoms: _149  and  _152
REMARK   64  A    between atoms: _155  and  _157
REMARK   65  A    between atoms: _157  and  _158
REMARK   66  A    between atoms: _157  and  _160
REMARK   67  A    between atoms: _160  and  _161
REMARK   68  A    between atoms: _161  and  _162
REMARK   69  A    between atoms: _162  and  _163
REMARK   70  A    between atoms: _172  and  _174
REMARK   71  A    between atoms: _174  and  _175
REMARK   72  A    between atoms: _174  and  _177
REMARK   73  A    between atoms: _177  and  _178
REMARK   74  A    between atoms: _183  and  _185
REMARK   75  A    between atoms: _185  and  _186
REMARK   76  A    between atoms: _185  and  _188
REMARK   77  A    between atoms: _188  and  _189
REMARK   78  A    between atoms: _189  and  _190
REMARK   79  A    between atoms: _193  and  _195
REMARK   80  A    between atoms: _195  and  _196
REMARK   81  A    between atoms: _195  and  _198
REMARK   82  A    between atoms: _198  and  _199
REMARK   83  A    between atoms: _199  and  _200
REMARK   84  A    between atoms: _200  and  _201
REMARK   85  A    between atoms: _201  and  _202
REMARK   86  A    between atoms: _206  and  _208
REMARK   87  A    between atoms: _208  and  _209
REMARK   88  A    between atoms: _211  and  _213
REMARK   89  A    between atoms: _213  and  _214
REMARK   90  A    between atoms: _213  and  _216
REMARK   91  A    between atoms: _219  and  _221
REMARK   92  A    between atoms: _221  and  _222
REMARK   93  A    between atoms: _221  and  _224
REMARK   94  A    between atoms: _224  and  _225
REMARK   95  A    between atoms: _227  and  _229
REMARK   96  A    between atoms: _229  and  _230
REMARK   97  A    between atoms: _229  and  _232
REMARK   98  A    between atoms: _232  and  _233
REMARK   99  A    between atoms: _235  and  _237
REMARK  100  A    between atoms: _237  and  _238
REMARK  101  A    between atoms: _237  and  _240
REMARK  102  A    between atoms: _240  and  _241
REMARK  103  A    between atoms: _247  and  _249
REMARK  104  A    between atoms: _249  and  _250
REMARK  105  A    between atoms: _249  and  _252
REMARK  106  A    between atoms: _252  and  _253
REMARK  107  A    between atoms: _256  and  _258
REMARK  108  A    between atoms: _258  and  _259
REMARK  109  A    between atoms: _258  and  _261
REMARK  110  A    between atoms: _261  and  _262
REMARK  111  A    between atoms: _265  and  _267
REMARK  112  A    between atoms: _267  and  _268
REMARK  113  A    between atoms: _267  and  _270
REMARK  114  A    between atoms: _270  and  _271
REMARK  115  A    between atoms: _271  and  _272
REMARK  116  A    between atoms: _274  and  _276
REMARK  117  A    between atoms: _276  and  _277
REMARK  118  A    between atoms: _276  and  _279
REMARK  119  A    between atoms: _279  and  _280
REMARK  120  A    between atoms: _286  and  _288
REMARK  121  A    between atoms: _288  and  _289
REMARK  122  A    between atoms: _288  and  _291
REMARK  123  A    between atoms: _293  and  _295
REMARK  124  A    between atoms: _295  and  _296
REMARK  125  A    between atoms: _299  and  _301
REMARK  126  A    between atoms: _301  and  _302
REMARK  127  A    between atoms: _304  and  _306
REMARK  128  A    between atoms: _306  and  _307
REMARK  129  A    between atoms: _306  and  _309
REMARK  130  A    between atoms: _309  and  _310
REMARK  131  A    between atoms: _310  and  _311
REMARK  132  A    between atoms: _314  and  _316
REMARK  133  A    between atoms: _316  and  _317
REMARK  134  A    between atoms: _316  and  _319
REMARK  135  A    between atoms: _319  and  _320
REMARK  136  A    between atoms: _323  and  _325
REMARK  137  A    between atoms: _325  and  _326
REMARK  138  A    between atoms: _329  and  _331
REMARK  139  A    between atoms: _331  and  _332
REMARK  140  A    between atoms: _331  and  _334
REMARK  141  A    between atoms: _334  and  _335
REMARK  142  A    between atoms: _335  and  _458
REMARK  143  A    between atoms: _336  and  _338
REMARK  144  A    between atoms: _338  and  _339
REMARK  145  A    between atoms: _338  and  _341
REMARK  146  A    between atoms: _341  and  _342
REMARK  147  A    between atoms: _342  and  _343
REMARK  148  A    between atoms: _348  and  _350
REMARK  149  A    between atoms: _350  and  _351
REMARK  150  A    between atoms: _353  and  _355
REMARK  151  A    between atoms: _355  and  _356
REMARK  152  A    between atoms: _355  and  _358
REMARK  153  A    between atoms: _358  and  _359
REMARK  154  A    between atoms: _362  and  _364
REMARK  155  A    between atoms: _364  and  _365
REMARK  156  A    between atoms: _364  and  _367
REMARK  157  A    between atoms: _367  and  _368
REMARK  158  A    between atoms: _370  and  _372
REMARK  159  A    between atoms: _372  and  _373
REMARK  160  A    between atoms: _375  and  _377
REMARK  161  A    between atoms: _377  and  _378
REMARK  162  A    between atoms: _380  and  _382
REMARK  163  A    between atoms: _382  and  _383
REMARK  164  A    between atoms: _382  and  _385
REMARK  165  A    between atoms: _385  and  _386
REMARK  166  A    between atoms: _391  and  _393
REMARK  167  A    between atoms: _393  and  _394
REMARK  168  A    between atoms: _393  and  _396
REMARK  169  A    between atoms: _396  and  _397
REMARK  170  A    between atoms: _400  and  _402
REMARK  171  A    between atoms: _402  and  _403
REMARK  172  A    between atoms: _402  and  _405
REMARK  173  A    between atoms: _408  and  _410
REMARK  174  A    between atoms: _410  and  _411
REMARK  175  A    between atoms: _410  and  _413
REMARK  176  A    between atoms: _413  and  _414
REMARK  177  A    between atoms: _416  and  _418
REMARK  178  A    between atoms: _418  and  _419
REMARK  179  A    between atoms: _418  and  _421
REMARK  180  A    between atoms: _421  and  _422
REMARK  181  A    between atoms: _432  and  _434
REMARK  182  A    between atoms: _434  and  _435
REMARK  183  A    between atoms: _437  and  _439
REMARK  184  A    between atoms: _439  and  _440
REMARK  185  A    between atoms: _439  and  _442
REMARK  186  A    between atoms: _442  and  _443
REMARK  187  A    between atoms: _443  and  _444
REMARK  188  A    between atoms: _447  and  _449
REMARK  189  A    between atoms: _449  and  _450
REMARK  190  A    between atoms: _452  and  _454
REMARK  191  A    between atoms: _454  and  _455
REMARK  192  A    between atoms: _454  and  _457
REMARK  193  A    between atoms: _457  and  _458
REMARK  194  A    between atoms: _459  and  _461
REMARK  195  A    between atoms: _461  and  _462
REMARK  196  A    between atoms: _465  and  _467
REMARK  197  A    between atoms: _467  and  _468
REMARK  198  A    between atoms: _467  and  _470
REMARK  199  A    between atoms: _470  and  _471
REMARK  200  A    between atoms: _471  and  _472
REMARK  201  A    between atoms: _472  and  _473
REMARK  202  A    between atoms: _482  and  _484
REMARK  203  A    between atoms: _484  and  _485
REMARK  204  A    between atoms: _484  and  _487
REMARK  205  A    between atoms: _487  and  _488
REMARK  206  A    between atoms: _488  and  _489
REMARK  207  A    between atoms: _489  and  _490
REMARK  208  A    between atoms: _490  and  _491
REMARK  209  A    between atoms: _495  and  _497
REMARK  210  A    between atoms: _497  and  _498
REMARK  211  A    between atoms: _497  and  _500
REMARK  212  A    between atoms: _500  and  _501
REMARK  213  A    between atoms: _506  and  _507
REMARK  214  A    between atoms: _509  and  _511
REMARK  215  A    between atoms: _511  and  _512
REMARK  216  A    between atoms: _514  and  _516
REMARK  217  A    between atoms: _516  and  _517
REMARK  218  A    between atoms: _516  and  _519
REMARK  219  A    between atoms: _519  and  _520
REMARK  220  A    between atoms: _523  and  _525
REMARK  221  A    between atoms: _525  and  _526
REMARK  222  A    between atoms: _525  and  _528
REMARK  223  A    between atoms: _528  and  _529
REMARK  224  A    between atoms: _534  and  _535
REMARK  225  A    between atoms: _537  and  _539
REMARK  226  A    between atoms: _539  and  _540
REMARK  227  A    between atoms: _539  and  _542
REMARK  228  A    between atoms: _542  and  _543
REMARK                            x       y       z     vdW  Elec       q    Type
REMARK                         _______ _______ _______ _____ _____    ______ ____
ROOT
ATOM      1  O   HOH     1     -13.423   3.285  16.423  0.00  0.00    +0.000 OA
ENDROOT
TORSDOF 0
REMARK  Name = ../refined-set-2016/2y5f/2y5f_pocket.pdb
REMARK  228 active torsions:
REMARK  status: ('A' for Active; 'I' for Inactive)
REMARK    1  A    between atoms: _1  and  _5
REMARK    2  A    between atoms: _5  and  _6
REMARK    3  A    between atoms: _5  and  _8
REMARK    4  A    between atoms: _8  and  _9
REMARK    5  A    between atoms: _12  and  _14
REMARK    6  A    between atoms: _14  and  _15
REMARK    7  A    between atoms: _14  and  _17
REMARK    8  A    between atoms: _20  and  _22
REMARK    9  A    between atoms: _22  and  _23
REMARK   10  A    between atoms: _22  and  _25
REMARK   11  A    between atoms: _25  and  _26
REMARK   12  A    between atoms: _32  and  _34
REMARK   13  A    between atoms: _34  and  _35
REMARK   14  A    between atoms: _34  and  _37
REMARK   15  A    between atoms: _39  and  _41
REMARK   16  A    between atoms: _41  and  _42
REMARK   17  A    between atoms: _41  and  _44
REMARK   18  A    between atoms: _44  and  _45
REMARK   19  A    between atoms: _50  and  _52
REMARK   20  A    between atoms: _52  and  _53
REMARK   21  A    between atoms: _52  and  _55
REMARK   22  A    between atoms: _55  and  _56
REMARK   23  A    between atoms: _56  and  _57
REMARK   24  A    between atoms: _62  and  _64
REMARK   25  A    between atoms: _64  and  _65
REMARK   26  A    between atoms: _64  and  _67
REMARK   27  A    between atoms: _67  and  _68
REMARK   28  A    between atoms: _74  and  _76
REMARK   29  A    between atoms: _76  and  _77
REMARK   30  A    between atoms: _76  and  _79
REMARK   31  A    between atoms: _79  and  _80
REMARK   32  A    between atoms: _83  and  _85
REMARK   33  A    between atoms: _85  and  _86
REMARK   34  A    between atoms: _85  and  _88
REMARK   35  A    between atoms: _88  and  _89
REMARK   36  A    between atoms: _89  and  _90
REMARK   37  A    between atoms: _90  and  _91
REMARK   38  A    between atoms: _91  and  _92
REMARK   39  A    between atoms: _96  and  _98
REMARK   40  A    between atoms: _98  and  _99
REMARK   41  A    between atoms: _98  and  _101
REMARK   42  A    between atoms: _101  and  _102
REMARK   43  A    between atoms: _102  and  _103
REMARK   44  A    between atoms: _106  and  _108
REMARK   45  A    between atoms: _108  and  _109
REMARK   46  A    between atoms: _108  and  _111
REMARK   47  A    between atoms: _111  and  _112
REMARK   48  A    between atoms: _115  and  _117
REMARK   49  A    between atoms: _117  and  _118
REMARK   50  A    between atoms: _117  and  _120
REMARK   51  A    between atoms: _120  and  _121
REMARK   52  A    between atoms: _126  and  _127
REMARK   53  A    between atoms: _129  and  _131
REMARK   54  A    between atoms: _131  and  _132
REMARK   55  A    between atoms: _131  and  _134
REMARK   56  A    between atoms: _134  and  _135
REMARK   57  A    between atoms: _138  and  _140
REMARK   58  A    between atoms: _140  and  _141
REMARK   59  A    between atoms: _140  and  _143
REMARK   60  A    between atoms: _143  and  _144
REMARK   61  A    between atoms: _147  and  _149
REMARK   62  A    between atoms: _149  and  _150
REMARK   63  A    between atoms: _149  and  _152
REMARK   64  A    between atoms: _155  and  _157
REMARK   65  A    between atoms: _157  and  _158
REMARK   66  A    between atoms: _157  and  _160
REMARK   67  A    between atoms: _160  and  _161
REMARK   68  A    between atoms: _161  and  _162
REMARK   69  A    between atoms: _162  and  _163
REMARK   70  A    between atoms: _172  and  _174
REMARK   71  A    between atoms: _174  and  _175
REMARK   72  A    between atoms: _174  and  _177
REMARK   73  A    between atoms: _177  and  _178
REMARK   74  A    between atoms: _183  and  _185
REMARK   75  A    between atoms: _185  and  _186
REMARK   76  A    between atoms: _185  and  _188
REMARK   77  A    between atoms: _188  and  _189
REMARK   78  A    between atoms: _189  and  _190
REMARK   79  A    between atoms: _193  and  _195
REMARK   80  A    between atoms: _195  and  _196
REMARK   81  A    between atoms: _195  and  _198
REMARK   82  A    between atoms: _198  and  _199
REMARK   83  A    between atoms: _199  and  _200
REMARK   84  A    between atoms: _200  and  _201
REMARK   85  A    between atoms: _201  and  _202
REMARK   86  A    between atoms: _206  and  _208
REMARK   87  A    between atoms: _208  and  _209
REMARK   88  A    between atoms: _211  and  _213
REMARK   89  A    between atoms: _213  and  _214
REMARK   90  A    between atoms: _213  and  _216
REMARK   91  A    between atoms: _219  and  _221
REMARK   92  A    between atoms: _221  and  _222
REMARK   93  A    between atoms: _221  and  _224
REMARK   94  A    between atoms: _224  and  _225
REMARK   95  A    between atoms: _227  and  _229
REMARK   96  A    between atoms: _229  and  _230
REMARK   97  A    between atoms: _229  and  _232
REMARK   98  A    between atoms: _232  and  _233
REMARK   99  A    between atoms: _235  and  _237
REMARK  100  A    between atoms: _237  and  _238
REMARK  101  A    between atoms: _237  and  _240
REMARK  102  A    between atoms: _240  and  _241
REMARK  103  A    between atoms: _247  and  _249
REMARK  104  A    between atoms: _249  and  _250
REMARK  105  A    between atoms: _249  and  _252
REMARK  106  A    between atoms: _252  and  _253
REMARK  107  A    between atoms: _256  and  _258
REMARK  108  A    between atoms: _258  and  _259
REMARK  109  A    between atoms: _258  and  _261
REMARK  110  A    between atoms: _261  and  _262
REMARK  111  A    between atoms: _265  and  _267
REMARK  112  A    between atoms: _267  and  _268
REMARK  113  A    between atoms: _267  and  _270
REMARK  114  A    between atoms: _270  and  _271
REMARK  115  A    between atoms: _271  and  _272
REMARK  116  A    between atoms: _274  and  _276
REMARK  117  A    between atoms: _276  and  _277
REMARK  118  A    between atoms: _276  and  _279
REMARK  119  A    between atoms: _279  and  _280
REMARK  120  A    between atoms: _286  and  _288
REMARK  121  A    between atoms: _288  and  _289
REMARK  122  A    between atoms: _288  and  _291
REMARK  123  A    between atoms: _293  and  _295
REMARK  124  A    between atoms: _295  and  _296
REMARK  125  A    between atoms: _299  and  _301
REMARK  126  A    between atoms: _301  and  _302
REMARK  127  A    between atoms: _304  and  _306
REMARK  128  A    between atoms: _306  and  _307
REMARK  129  A    between atoms: _306  and  _309
REMARK  130  A    between atoms: _309  and  _310
REMARK  131  A    between atoms: _310  and  _311
REMARK  132  A    between atoms: _314  and  _316
REMARK  133  A    between atoms: _316  and  _317
REMARK  134  A    between atoms: _316  and  _319
REMARK  135  A    between atoms: _319  and  _320
REMARK  136  A    between atoms: _323  and  _325
REMARK  137  A    between atoms: _325  and  _326
REMARK  138  A    between atoms: _329  and  _331
REMARK  139  A    between atoms: _331  and  _332
REMARK  140  A    between atoms: _331  and  _334
REMARK  141  A    between atoms: _334  and  _335
REMARK  142  A    between atoms: _335  and  _458
REMARK  143  A    between atoms: _336  and  _338
REMARK  144  A    between atoms: _338  and  _339
REMARK  145  A    between atoms: _338  and  _341
REMARK  146  A    between atoms: _341  and  _342
REMARK  147  A    between atoms: _342  and  _343
REMARK  148  A    between atoms: _348  and  _350
REMARK  149  A    between atoms: _350  and  _351
REMARK  150  A    between atoms: _353  and  _355
REMARK  151  A    between atoms: _355  and  _356
REMARK  152  A    between atoms: _355  and  _358
REMARK  153  A    between atoms: _358  and  _359
REMARK  154  A    between atoms: _362  and  _364
REMARK  155  A    between atoms: _364  and  _365
REMARK  156  A    between atoms: _364  and  _367
REMARK  157  A    between atoms: _367  and  _368
REMARK  158  A    between atoms: _370  and  _372
REMARK  159  A    between atoms: _372  and  _373
REMARK  160  A    between atoms: _375  and  _377
REMARK  161  A    between atoms: _377  and  _378
REMARK  162  A    between atoms: _380  and  _382
REMARK  163  A    between atoms: _382  and  _383
REMARK  164  A    between atoms: _382  and  _385
REMARK  165  A    between atoms: _385  and  _386
REMARK  166  A    between atoms: _391  and  _393
REMARK  167  A    between atoms: _393  and  _394
REMARK  168  A    between atoms: _393  and  _396
REMARK  169  A    between atoms: _396  and  _397
REMARK  170  A    between atoms: _400  and  _402
REMARK  171  A    between atoms: _402  and  _403
REMARK  172  A    between atoms: _402  and  _405
REMARK  173  A    between atoms: _408  and  _410
REMARK  174  A    between atoms: _410  and  _411
REMARK  175  A    between atoms: _410  and  _413
REMARK  176  A    between atoms: _413  and  _414
REMARK  177  A    between atoms: _416  and  _418
REMARK  178  A    between atoms: _418  and  _419
REMARK  179  A    between atoms: _418  and  _421
REMARK  180  A    between atoms: _421  and  _422
REMARK  181  A    between atoms: _432  and  _434
REMARK  182  A    between atoms: _434  and  _435
REMARK  183  A    between atoms: _437  and  _439
REMARK  184  A    between atoms: _439  and  _440
REMARK  185  A    between atoms: _439  and  _442
REMARK  186  A    between atoms: _442  and  _443
REMARK  187  A    between atoms: _443  and  _444
REMARK  188  A    between atoms: _447  and  _449
REMARK  189  A    between atoms: _449  and  _450
REMARK  190  A    between atoms: _452  and  _454
REMARK  191  A    between atoms: _454  and  _455
REMARK  192  A    between atoms: _454  and  _457
REMARK  193  A    between atoms: _457  and  _458
REMARK  194  A    between atoms: _459  and  _461
REMARK  195  A    between atoms: _461  and  _462
REMARK  196  A    between atoms: _465  and  _467
REMARK  197  A    between atoms: _467  and  _468
REMARK  198  A    between atoms: _467  and  _470
REMARK  199  A    between atoms: _470  and  _471
REMARK  200  A    between atoms: _471  and  _472
REMARK  201  A    between atoms: _472  and  _473
REMARK  202  A    between atoms: _482  and  _484
REMARK  203  A    between atoms: _484  and  _485
REMARK  204  A    between atoms: _484  and  _487
REMARK  205  A    between atoms: _487  and  _488
REMARK  206  A    between atoms: _488  and  _489
REMARK  207  A    between atoms: _489  and  _490
REMARK  208  A    between atoms: _490  and  _491
REMARK  209  A    between atoms: _495  and  _497
REMARK  210  A    between atoms: _497  and  _498
REMARK  211  A    between atoms: _497  and  _500
REMARK  212  A    between atoms: _500  and  _501
REMARK  213  A    between atoms: _506  and  _507
REMARK  214  A    between atoms: _509  and  _511
REMARK  215  A    between atoms: _511  and  _512
REMARK  216  A    between atoms: _514  and  _516
REMARK  217  A    between atoms: _516  and  _517
REMARK  218  A    between atoms: _516  and  _519
REMARK  219  A    between atoms: _519  and  _520
REMARK  220  A    between atoms: _523  and  _525
REMARK  221  A    between atoms: _525  and  _526
REMARK  222  A    between atoms: _525  and  _528
REMARK  223  A    between atoms: _528  and  _529
REMARK  224  A    between atoms: _534  and  _535
REMARK  225  A    between atoms: _537  and  _539
REMARK  226  A    between atoms: _539  and  _540
REMARK  227  A    between atoms: _539  and  _542
REMARK  228  A    between atoms: _542  and  _543
REMARK                            x       y       z     vdW  Elec       q    Type
REMARK                         _______ _______ _______ _____ _____    ______ ____
ROOT
ATOM      1  O   HOH     1      -6.953   2.199  17.466  0.00  0.00    +0.000 OA
ENDROOT
TORSDOF 0
REMARK  Name = ../refined-set-2016/2y5f/2y5f_pocket.pdb
REMARK  228 active torsions:
REMARK  status: ('A' for Active; 'I' for Inactive)
REMARK    1  A    between atoms: _1  and  _5
REMARK    2  A    between atoms: _5  and  _6
REMARK    3  A    between atoms: _5  and  _8
REMARK    4  A    between atoms: _8  and  _9
REMARK    5  A    between atoms: _12  and  _14
REMARK    6  A    between atoms: _14  and  _15
REMARK    7  A    between atoms: _14  and  _17
REMARK    8  A    between atoms: _20  and  _22
REMARK    9  A    between atoms: _22  and  _23
REMARK   10  A    between atoms: _22  and  _25
REMARK   11  A    between atoms: _25  and  _26
REMARK   12  A    between atoms: _32  and  _34
REMARK   13  A    between atoms: _34  and  _35
REMARK   14  A    between atoms: _34  and  _37
REMARK   15  A    between atoms: _39  and  _41
REMARK   16  A    between atoms: _41  and  _42
REMARK   17  A    between atoms: _41  and  _44
REMARK   18  A    between atoms: _44  and  _45
REMARK   19  A    between atoms: _50  and  _52
REMARK   20  A    between atoms: _52  and  _53
REMARK   21  A    between atoms: _52  and  _55
REMARK   22  A    between atoms: _55  and  _56
REMARK   23  A    between atoms: _56  and  _57
REMARK   24  A    between atoms: _62  and  _64
REMARK   25  A    between atoms: _64  and  _65
REMARK   26  A    between atoms: _64  and  _67
REMARK   27  A    between atoms: _67  and  _68
REMARK   28  A    between atoms: _74  and  _76
REMARK   29  A    between atoms: _76  and  _77
REMARK   30  A    between atoms: _76  and  _79
REMARK   31  A    between atoms: _79  and  _80
REMARK   32  A    between atoms: _83  and  _85
REMARK   33  A    between atoms: _85  and  _86
REMARK   34  A    between atoms: _85  and  _88
REMARK   35  A    between atoms: _88  and  _89
REMARK   36  A    between atoms: _89  and  _90
REMARK   37  A    between atoms: _90  and  _91
REMARK   38  A    between atoms: _91  and  _92
REMARK   39  A    between atoms: _96  and  _98
REMARK   40  A    between atoms: _98  and  _99
REMARK   41  A    between atoms: _98  and  _101
REMARK   42  A    between atoms: _101  and  _102
REMARK   43  A    between atoms: _102  and  _103
REMARK   44  A    between atoms: _106  and  _108
REMARK   45  A    between atoms: _108  and  _109
REMARK   46  A    between atoms: _108  and  _111
REMARK   47  A    between atoms: _111  and  _112
REMARK   48  A    between atoms: _115  and  _117
REMARK   49  A    between atoms: _117  and  _118
REMARK   50  A    between atoms: _117  and  _120
REMARK   51  A    between atoms: _120  and  _121
REMARK   52  A    between atoms: _126  and  _127
REMARK   53  A    between atoms: _129  and  _131
REMARK   54  A    between atoms: _131  and  _132
REMARK   55  A    between atoms: _131  and  _134
REMARK   56  A    between atoms: _134  and  _135
REMARK   57  A    between atoms: _138  and  _140
REMARK   58  A    between atoms: _140  and  _141
REMARK   59  A    between atoms: _140  and  _143
REMARK   60  A    between atoms: _143  and  _144
REMARK   61  A    between atoms: _147  and  _149
REMARK   62  A    between atoms: _149  and  _150
REMARK   63  A    between atoms: _149  and  _152
REMARK   64  A    between atoms: _155  and  _157
REMARK   65  A    between atoms: _157  and  _158
REMARK   66  A    between atoms: _157  and  _160
REMARK   67  A    between atoms: _160  and  _161
REMARK   68  A    between atoms: _161  and  _162
REMARK   69  A    between atoms: _162  and  _163
REMARK   70  A    between atoms: _172  and  _174
REMARK   71  A    between atoms: _174  and  _175
REMARK   72  A    between atoms: _174  and  _177
REMARK   73  A    between atoms: _177  and  _178
REMARK   74  A    between atoms: _183  and  _185
REMARK   75  A    between atoms: _185  and  _186
REMARK   76  A    between atoms: _185  and  _188
REMARK   77  A    between atoms: _188  and  _189
REMARK   78  A    between atoms: _189  and  _190
REMARK   79  A    between atoms: _193  and  _195
REMARK   80  A    between atoms: _195  and  _196
REMARK   81  A    between atoms: _195  and  _198
REMARK   82  A    between atoms: _198  and  _199
REMARK   83  A    between atoms: _199  and  _200
REMARK   84  A    between atoms: _200  and  _201
REMARK   85  A    between atoms: _201  and  _202
REMARK   86  A    between atoms: _206  and  _208
REMARK   87  A    between atoms: _208  and  _209
REMARK   88  A    between atoms: _211  and  _213
REMARK   89  A    between atoms: _213  and  _214
REMARK   90  A    between atoms: _213  and  _216
REMARK   91  A    between atoms: _219  and  _221
REMARK   92  A    between atoms: _221  and  _222
REMARK   93  A    between atoms: _221  and  _224
REMARK   94  A    between atoms: _224  and  _225
REMARK   95  A    between atoms: _227  and  _229
REMARK   96  A    between atoms: _229  and  _230
REMARK   97  A    between atoms: _229  and  _232
REMARK   98  A    between atoms: _232  and  _233
REMARK   99  A    between atoms: _235  and  _237
REMARK  100  A    between atoms: _237  and  _238
REMARK  101  A    between atoms: _237  and  _240
REMARK  102  A    between atoms: _240  and  _241
REMARK  103  A    between atoms: _247  and  _249
REMARK  104  A    between atoms: _249  and  _250
REMARK  105  A    between atoms: _249  and  _252
REMARK  106  A    between atoms: _252  and  _253
REMARK  107  A    between atoms: _256  and  _258
REMARK  108  A    between atoms: _258  and  _259
REMARK  109  A    between atoms: _258  and  _261
REMARK  110  A    between atoms: _261  and  _262
REMARK  111  A    between atoms: _265  and  _267
REMARK  112  A    between atoms: _267  and  _268
REMARK  113  A    between atoms: _267  and  _270
REMARK  114  A    between atoms: _270  and  _271
REMARK  115  A    between atoms: _271  and  _272
REMARK  116  A    between atoms: _274  and  _276
REMARK  117  A    between atoms: _276  and  _277
REMARK  118  A    between atoms: _276  and  _279
REMARK  119  A    between atoms: _279  and  _280
REMARK  120  A    between atoms: _286  and  _288
REMARK  121  A    between atoms: _288  and  _289
REMARK  122  A    between atoms: _288  and  _291
REMARK  123  A    between atoms: _293  and  _295
REMARK  124  A    between atoms: _295  and  _296
REMARK  125  A    between atoms: _299  and  _301
REMARK  126  A    between atoms: _301  and  _302
REMARK  127  A    between atoms: _304  and  _306
REMARK  128  A    between atoms: _306  and  _307
REMARK  129  A    between atoms: _306  and  _309
REMARK  130  A    between atoms: _309  and  _310
REMARK  131  A    between atoms: _310  and  _311
REMARK  132  A    between atoms: _314  and  _316
REMARK  133  A    between atoms: _316  and  _317
REMARK  134  A    between atoms: _316  and  _319
REMARK  135  A    between atoms: _319  and  _320
REMARK  136  A    between atoms: _323  and  _325
REMARK  137  A    between atoms: _325  and  _326
REMARK  138  A    between atoms: _329  and  _331
REMARK  139  A    between atoms: _331  and  _332
REMARK  140  A    between atoms: _331  and  _334
REMARK  141  A    between atoms: _334  and  _335
REMARK  142  A    between atoms: _335  and  _458
REMARK  143  A    between atoms: _336  and  _338
REMARK  144  A    between atoms: _338  and  _339
REMARK  145  A    between atoms: _338  and  _341
REMARK  146  A    between atoms: _341  and  _342
REMARK  147  A    between atoms: _342  and  _343
REMARK  148  A    between atoms: _348  and  _350
REMARK  149  A    between atoms: _350  and  _351
REMARK  150  A    between atoms: _353  and  _355
REMARK  151  A    between atoms: _355  and  _356
REMARK  152  A    between atoms: _355  and  _358
REMARK  153  A    between atoms: _358  and  _359
REMARK  154  A    between atoms: _362  and  _364
REMARK  155  A    between atoms: _364  and  _365
REMARK  156  A    between atoms: _364  and  _367
REMARK  157  A    between atoms: _367  and  _368
REMARK  158  A    between atoms: _370  and  _372
REMARK  159  A    between atoms: _372  and  _373
REMARK  160  A    between atoms: _375  and  _377
REMARK  161  A    between atoms: _377  and  _378
REMARK  162  A    between atoms: _380  and  _382
REMARK  163  A    between atoms: _382  and  _383
REMARK  164  A    between atoms: _382  and  _385
REMARK  165  A    between atoms: _385  and  _386
REMARK  166  A    between atoms: _391  and  _393
REMARK  167  A    between atoms: _393  and  _394
REMARK  168  A    between atoms: _393  and  _396
REMARK  169  A    between atoms: _396  and  _397
REMARK  170  A    between atoms: _400  and  _402
REMARK  171  A    between atoms: _402  and  _403
REMARK  172  A    between atoms: _402  and  _405
REMARK  173  A    between atoms: _408  and  _410
REMARK  174  A    between atoms: _410  and  _411
REMARK  175  A    between atoms: _410  and  _413
REMARK  176  A    between atoms: _413  and  _414
REMARK  177  A    between atoms: _416  and  _418
REMARK  178  A    between atoms: _418  and  _419
REMARK  179  A    between atoms: _418  and  _421
REMARK  180  A    between atoms: _421  and  _422
REMARK  181  A    between atoms: _432  and  _434
REMARK  182  A    between atoms: _434  and  _435
REMARK  183  A    between atoms: _437  and  _439
REMARK  184  A    between atoms: _439  and  _440
REMARK  185  A    between atoms: _439  and  _442
REMARK  186  A    between atoms: _442  and  _443
REMARK  187  A    between atoms: _443  and  _444
REMARK  188  A    between atoms: _447  and  _449
REMARK  189  A    between atoms: _449  and  _450
REMARK  190  A    between atoms: _452  and  _454
REMARK  191  A    between atoms: _454  and  _455
REMARK  192  A    between atoms: _454  and  _457
REMARK  193  A    between atoms: _457  and  _458
REMARK  194  A    between atoms: _459  and  _461
REMARK  195  A    between atoms: _461  and  _462
REMARK  196  A    between atoms: _465  and  _467
REMARK  197  A    between atoms: _467  and  _468
REMARK  198  A    between atoms: _467  and  _470
REMARK  199  A    between atoms: _470  and  _471
REMARK  200  A    between atoms: _471  and  _472
REMARK  201  A    between atoms: _472  and  _473
REMARK  202  A    between atoms: _482  and  _484
REMARK  203  A    between atoms: _484  and  _485
REMARK  204  A    between atoms: _484  and  _487
REMARK  205  A    between atoms: _487  and  _488
REMARK  206  A    between atoms: _488  and  _489
REMARK  207  A    between atoms: _489  and  _490
REMARK  208  A    between atoms: _490  and  _491
REMARK  209  A    between atoms: _495  and  _497
REMARK  210  A    between atoms: _497  and  _498
REMARK  211  A    between atoms: _497  and  _500
REMARK  212  A    between atoms: _500  and  _501
REMARK  213  A    between atoms: _506  and  _507
REMARK  214  A    between atoms: _509  and  _511
REMARK  215  A    between atoms: _511  and  _512
REMARK  216  A    between atoms: _514  and  _516
REMARK  217  A    between atoms: _516  and  _517
REMARK  218  A    between atoms: _516  and  _519
REMARK  219  A    between atoms: _519  and  _520
REMARK  220  A    between atoms: _523  and  _525
REMARK  221  A    between atoms: _525  and  _526
REMARK  222  A    between atoms: _525  and  _528
REMARK  223  A    between atoms: _528  and  _529
REMARK  224  A    between atoms: _534  and  _535
REMARK  225  A    between atoms: _537  and  _539
REMARK  226  A    between atoms: _539  and  _540
REMARK  227  A    between atoms: _539  and  _542
REMARK  228  A    between atoms: _542  and  _543
REMARK                            x       y       z     vdW  Elec       q    Type
REMARK                         _______ _______ _______ _____ _____    ______ ____
ROOT
ATOM      1  O   HOH     1     -11.093   1.834  15.762  0.00  0.00    +0.000 OA
ENDROOT
TORSDOF 0
REMARK  Name = ../refined-set-2016/2y5f/2y5f_pocket.pdb
REMARK  228 active torsions:
REMARK  status: ('A' for Active; 'I' for Inactive)
REMARK    1  A    between atoms: _1  and  _5
REMARK    2  A    between atoms: _5  and  _6
REMARK    3  A    between atoms: _5  and  _8
REMARK    4  A    between atoms: _8  and  _9
REMARK    5  A    between atoms: _12  and  _14
REMARK    6  A    between atoms: _14  and  _15
REMARK    7  A    between atoms: _14  and  _17
REMARK    8  A    between atoms: _20  and  _22
REMARK    9  A    between atoms: _22  and  _23
REMARK   10  A    between atoms: _22  and  _25
REMARK   11  A    between atoms: _25  and  _26
REMARK   12  A    between atoms: _32  and  _34
REMARK   13  A    between atoms: _34  and  _35
REMARK   14  A    between atoms: _34  and  _37
REMARK   15  A    between atoms: _39  and  _41
REMARK   16  A    between atoms: _41  and  _42
REMARK   17  A    between atoms: _41  and  _44
REMARK   18  A    between atoms: _44  and  _45
REMARK   19  A    between atoms: _50  and  _52
REMARK   20  A    between atoms: _52  and  _53
REMARK   21  A    between atoms: _52  and  _55
REMARK   22  A    between atoms: _55  and  _56
REMARK   23  A    between atoms: _56  and  _57
REMARK   24  A    between atoms: _62  and  _64
REMARK   25  A    between atoms: _64  and  _65
REMARK   26  A    between atoms: _64  and  _67
REMARK   27  A    between atoms: _67  and  _68
REMARK   28  A    between atoms: _74  and  _76
REMARK   29  A    between atoms: _76  and  _77
REMARK   30  A    between atoms: _76  and  _79
REMARK   31  A    between atoms: _79  and  _80
REMARK   32  A    between atoms: _83  and  _85
REMARK   33  A    between atoms: _85  and  _86
REMARK   34  A    between atoms: _85  and  _88
REMARK   35  A    between atoms: _88  and  _89
REMARK   36  A    between atoms: _89  and  _90
REMARK   37  A    between atoms: _90  and  _91
REMARK   38  A    between atoms: _91  and  _92
REMARK   39  A    between atoms: _96  and  _98
REMARK   40  A    between atoms: _98  and  _99
REMARK   41  A    between atoms: _98  and  _101
REMARK   42  A    between atoms: _101  and  _102
REMARK   43  A    between atoms: _102  and  _103
REMARK   44  A    between atoms: _106  and  _108
REMARK   45  A    between atoms: _108  and  _109
REMARK   46  A    between atoms: _108  and  _111
REMARK   47  A    between atoms: _111  and  _112
REMARK   48  A    between atoms: _115  and  _117
REMARK   49  A    between atoms: _117  and  _118
REMARK   50  A    between atoms: _117  and  _120
REMARK   51  A    between atoms: _120  and  _121
REMARK   52  A    between atoms: _126  and  _127
REMARK   53  A    between atoms: _129  and  _131
REMARK   54  A    between atoms: _131  and  _132
REMARK   55  A    between atoms: _131  and  _134
REMARK   56  A    between atoms: _134  and  _135
REMARK   57  A    between atoms: _138  and  _140
REMARK   58  A    between atoms: _140  and  _141
REMARK   59  A    between atoms: _140  and  _143
REMARK   60  A    between atoms: _143  and  _144
REMARK   61  A    between atoms: _147  and  _149
REMARK   62  A    between atoms: _149  and  _150
REMARK   63  A    between atoms: _149  and  _152
REMARK   64  A    between atoms: _155  and  _157
REMARK   65  A    between atoms: _157  and  _158
REMARK   66  A    between atoms: _157  and  _160
REMARK   67  A    between atoms: _160  and  _161
REMARK   68  A    between atoms: _161  and  _162
REMARK   69  A    between atoms: _162  and  _163
REMARK   70  A    between atoms: _172  and  _174
REMARK   71  A    between atoms: _174  and  _175
REMARK   72  A    between atoms: _174  and  _177
REMARK   73  A    between atoms: _177  and  _178
REMARK   74  A    between atoms: _183  and  _185
REMARK   75  A    between atoms: _185  and  _186
REMARK   76  A    between atoms: _185  and  _188
REMARK   77  A    between atoms: _188  and  _189
REMARK   78  A    between atoms: _189  and  _190
REMARK   79  A    between atoms: _193  and  _195
REMARK   80  A    between atoms: _195  and  _196
REMARK   81  A    between atoms: _195  and  _198
REMARK   82  A    between atoms: _198  and  _199
REMARK   83  A    between atoms: _199  and  _200
REMARK   84  A    between atoms: _200  and  _201
REMARK   85  A    between atoms: _201  and  _202
REMARK   86  A    between atoms: _206  and  _208
REMARK   87  A    between atoms: _208  and  _209
REMARK   88  A    between atoms: _211  and  _213
REMARK   89  A    between atoms: _213  and  _214
REMARK   90  A    between atoms: _213  and  _216
REMARK   91  A    between atoms: _219  and  _221
REMARK   92  A    between atoms: _221  and  _222
REMARK   93  A    between atoms: _221  and  _224
REMARK   94  A    between atoms: _224  and  _225
REMARK   95  A    between atoms: _227  and  _229
REMARK   96  A    between atoms: _229  and  _230
REMARK   97  A    between atoms: _229  and  _232
REMARK   98  A    between atoms: _232  and  _233
REMARK   99  A    between atoms: _235  and  _237
REMARK  100  A    between atoms: _237  and  _238
REMARK  101  A    between atoms: _237  and  _240
REMARK  102  A    between atoms: _240  and  _241
REMARK  103  A    between atoms: _247  and  _249
REMARK  104  A    between atoms: _249  and  _250
REMARK  105  A    between atoms: _249  and  _252
REMARK  106  A    between atoms: _252  and  _253
REMARK  107  A    between atoms: _256  and  _258
REMARK  108  A    between atoms: _258  and  _259
REMARK  109  A    between atoms: _258  and  _261
REMARK  110  A    between atoms: _261  and  _262
REMARK  111  A    between atoms: _265  and  _267
REMARK  112  A    between atoms: _267  and  _268
REMARK  113  A    between atoms: _267  and  _270
REMARK  114  A    between atoms: _270  and  _271
REMARK  115  A    between atoms: _271  and  _272
REMARK  116  A    between atoms: _274  and  _276
REMARK  117  A    between atoms: _276  and  _277
REMARK  118  A    between atoms: _276  and  _279
REMARK  119  A    between atoms: _279  and  _280
REMARK  120  A    between atoms: _286  and  _288
REMARK  121  A    between atoms: _288  and  _289
REMARK  122  A    between atoms: _288  and  _291
REMARK  123  A    between atoms: _293  and  _295
REMARK  124  A    between atoms: _295  and  _296
REMARK  125  A    between atoms: _299  and  _301
REMARK  126  A    between atoms: _301  and  _302
REMARK  127  A    between atoms: _304  and  _306
REMARK  128  A    between atoms: _306  and  _307
REMARK  129  A    between atoms: _306  and  _309
REMARK  130  A    between atoms: _309  and  _310
REMARK  131  A    between atoms: _310  and  _311
REMARK  132  A    between atoms: _314  and  _316
REMARK  133  A    between atoms: _316  and  _317
REMARK  134  A    between atoms: _316  and  _319
REMARK  135  A    between atoms: _319  and  _320
REMARK  136  A    between atoms: _323  and  _325
REMARK  137  A    between atoms: _325  and  _326
REMARK  138  A    between atoms: _329  and  _331
REMARK  139  A    between atoms: _331  and  _332
REMARK  140  A    between atoms: _331  and  _334
REMARK  141  A    between atoms: _334  and  _335
REMARK  142  A    between atoms: _335  and  _458
REMARK  143  A    between atoms: _336  and  _338
REMARK  144  A    between atoms: _338  and  _339
REMARK  145  A    between atoms: _338  and  _341
REMARK  146  A    between atoms: _341  and  _342
REMARK  147  A    between atoms: _342  and  _343
REMARK  148  A    between atoms: _348  and  _350
REMARK  149  A    between atoms: _350  and  _351
REMARK  150  A    between atoms: _353  and  _355
REMARK  151  A    between atoms: _355  and  _356
REMARK  152  A    between atoms: _355  and  _358
REMARK  153  A    between atoms: _358  and  _359
REMARK  154  A    between atoms: _362  and  _364
REMARK  155  A    between atoms: _364  and  _365
REMARK  156  A    between atoms: _364  and  _367
REMARK  157  A    between atoms: _367  and  _368
REMARK  158  A    between atoms: _370  and  _372
REMARK  159  A    between atoms: _372  and  _373
REMARK  160  A    between atoms: _375  and  _377
REMARK  161  A    between atoms: _377  and  _378
REMARK  162  A    between atoms: _380  and  _382
REMARK  163  A    between atoms: _382  and  _383
REMARK  164  A    between atoms: _382  and  _385
REMARK  165  A    between atoms: _385  and  _386
REMARK  166  A    between atoms: _391  and  _393
REMARK  167  A    between atoms: _393  and  _394
REMARK  168  A    between atoms: _393  and  _396
REMARK  169  A    between atoms: _396  and  _397
REMARK  170  A    between atoms: _400  and  _402
REMARK  171  A    between atoms: _402  and  _403
REMARK  172  A    between atoms: _402  and  _405
REMARK  173  A    between atoms: _408  and  _410
REMARK  174  A    between atoms: _410  and  _411
REMARK  175  A    between atoms: _410  and  _413
REMARK  176  A    between atoms: _413  and  _414
REMARK  177  A    between atoms: _416  and  _418
REMARK  178  A    between atoms: _418  and  _419
REMARK  179  A    between atoms: _418  and  _421
REMARK  180  A    between atoms: _421  and  _422
REMARK  181  A    between atoms: _432  and  _434
REMARK  182  A    between atoms: _434  and  _435
REMARK  183  A    between atoms: _437  and  _439
REMARK  184  A    between atoms: _439  and  _440
REMARK  185  A    between atoms: _439  and  _442
REMARK  186  A    between atoms: _442  and  _443
REMARK  187  A    between atoms: _443  and  _444
REMARK  188  A    between atoms: _447  and  _449
REMARK  189  A    between atoms: _449  and  _450
REMARK  190  A    between atoms: _452  and  _454
REMARK  191  A    between atoms: _454  and  _455
REMARK  192  A    between atoms: _454  and  _457
REMARK  193  A    between atoms: _457  and  _458
REMARK  194  A    between atoms: _459  and  _461
REMARK  195  A    between atoms: _461  and  _462
REMARK  196  A    between atoms: _465  and  _467
REMARK  197  A    between atoms: _467  and  _468
REMARK  198  A    between atoms: _467  and  _470
REMARK  199  A    between atoms: _470  and  _471
REMARK  200  A    between atoms: _471  and  _472
REMARK  201  A    between atoms: _472  and  _473
REMARK  202  A    between atoms: _482  and  _484
REMARK  203  A    between atoms: _484  and  _485
REMARK  204  A    between atoms: _484  and  _487
REMARK  205  A    between atoms: _487  and  _488
REMARK  206  A    between atoms: _488  and  _489
REMARK  207  A    between atoms: _489  and  _490
REMARK  208  A    between atoms: _490  and  _491
REMARK  209  A    between atoms: _495  and  _497
REMARK  210  A    between atoms: _497  and  _498
REMARK  211  A    between atoms: _497  and  _500
REMARK  212  A    between atoms: _500  and  _501
REMARK  213  A    between atoms: _506  and  _507
REMARK  214  A    between atoms: _509  and  _511
REMARK  215  A    between atoms: _511  and  _512
REMARK  216  A    between atoms: _514  and  _516
REMARK  217  A    between atoms: _516  and  _517
REMARK  218  A    between atoms: _516  and  _519
REMARK  219  A    between atoms: _519  and  _520
REMARK  220  A    between atoms: _523  and  _525
REMARK  221  A    between atoms: _525  and  _526
REMARK  222  A    between atoms: _525  and  _528
REMARK  223  A    between atoms: _528  and  _529
REMARK  224  A    between atoms: _534  and  _535
REMARK  225  A    between atoms: _537  and  _539
REMARK  226  A    between atoms: _539  and  _540
REMARK  227  A    between atoms: _539  and  _542
REMARK  228  A    between atoms: _542  and  _543
REMARK                            x       y       z     vdW  Elec       q    Type
REMARK                         _______ _______ _______ _____ _____    ______ ____
ROOT
ATOM      1  O   HOH     1      -4.532   4.894  34.068  0.00  0.00    +0.000 OA
ENDROOT
TORSDOF 0
REMARK  Name = ../refined-set-2016/2y5f/2y5f_pocket.pdb
REMARK  228 active torsions:
REMARK  status: ('A' for Active; 'I' for Inactive)
REMARK    1  A    between atoms: _1  and  _5
REMARK    2  A    between atoms: _5  and  _6
REMARK    3  A    between atoms: _5  and  _8
REMARK    4  A    between atoms: _8  and  _9
REMARK    5  A    between atoms: _12  and  _14
REMARK    6  A    between atoms: _14  and  _15
REMARK    7  A    between atoms: _14  and  _17
REMARK    8  A    between atoms: _20  and  _22
REMARK    9  A    between atoms: _22  and  _23
REMARK   10  A    between atoms: _22  and  _25
REMARK   11  A    between atoms: _25  and  _26
REMARK   12  A    between atoms: _32  and  _34
REMARK   13  A    between atoms: _34  and  _35
REMARK   14  A    between atoms: _34  and  _37
REMARK   15  A    between atoms: _39  and  _41
REMARK   16  A    between atoms: _41  and  _42
REMARK   17  A    between atoms: _41  and  _44
REMARK   18  A    between atoms: _44  and  _45
REMARK   19  A    between atoms: _50  and  _52
REMARK   20  A    between atoms: _52  and  _53
REMARK   21  A    between atoms: _52  and  _55
REMARK   22  A    between atoms: _55  and  _56
REMARK   23  A    between atoms: _56  and  _57
REMARK   24  A    between atoms: _62  and  _64
REMARK   25  A    between atoms: _64  and  _65
REMARK   26  A    between atoms: _64  and  _67
REMARK   27  A    between atoms: _67  and  _68
REMARK   28  A    between atoms: _74  and  _76
REMARK   29  A    between atoms: _76  and  _77
REMARK   30  A    between atoms: _76  and  _79
REMARK   31  A    between atoms: _79  and  _80
REMARK   32  A    between atoms: _83  and  _85
REMARK   33  A    between atoms: _85  and  _86
REMARK   34  A    between atoms: _85  and  _88
REMARK   35  A    between atoms: _88  and  _89
REMARK   36  A    between atoms: _89  and  _90
REMARK   37  A    between atoms: _90  and  _91
REMARK   38  A    between atoms: _91  and  _92
REMARK   39  A    between atoms: _96  and  _98
REMARK   40  A    between atoms: _98  and  _99
REMARK   41  A    between atoms: _98  and  _101
REMARK   42  A    between atoms: _101  and  _102
REMARK   43  A    between atoms: _102  and  _103
REMARK   44  A    between atoms: _106  and  _108
REMARK   45  A    between atoms: _108  and  _109
REMARK   46  A    between atoms: _108  and  _111
REMARK   47  A    between atoms: _111  and  _112
REMARK   48  A    between atoms: _115  and  _117
REMARK   49  A    between atoms: _117  and  _118
REMARK   50  A    between atoms: _117  and  _120
REMARK   51  A    between atoms: _120  and  _121
REMARK   52  A    between atoms: _126  and  _127
REMARK   53  A    between atoms: _129  and  _131
REMARK   54  A    between atoms: _131  and  _132
REMARK   55  A    between atoms: _131  and  _134
REMARK   56  A    between atoms: _134  and  _135
REMARK   57  A    between atoms: _138  and  _140
REMARK   58  A    between atoms: _140  and  _141
REMARK   59  A    between atoms: _140  and  _143
REMARK   60  A    between atoms: _143  and  _144
REMARK   61  A    between atoms: _147  and  _149
REMARK   62  A    between atoms: _149  and  _150
REMARK   63  A    between atoms: _149  and  _152
REMARK   64  A    between atoms: _155  and  _157
REMARK   65  A    between atoms: _157  and  _158
REMARK   66  A    between atoms: _157  and  _160
REMARK   67  A    between atoms: _160  and  _161
REMARK   68  A    between atoms: _161  and  _162
REMARK   69  A    between atoms: _162  and  _163
REMARK   70  A    between atoms: _172  and  _174
REMARK   71  A    between atoms: _174  and  _175
REMARK   72  A    between atoms: _174  and  _177
REMARK   73  A    between atoms: _177  and  _178
REMARK   74  A    between atoms: _183  and  _185
REMARK   75  A    between atoms: _185  and  _186
REMARK   76  A    between atoms: _185  and  _188
REMARK   77  A    between atoms: _188  and  _189
REMARK   78  A    between atoms: _189  and  _190
REMARK   79  A    between atoms: _193  and  _195
REMARK   80  A    between atoms: _195  and  _196
REMARK   81  A    between atoms: _195  and  _198
REMARK   82  A    between atoms: _198  and  _199
REMARK   83  A    between atoms: _199  and  _200
REMARK   84  A    between atoms: _200  and  _201
REMARK   85  A    between atoms: _201  and  _202
REMARK   86  A    between atoms: _206  and  _208
REMARK   87  A    between atoms: _208  and  _209
REMARK   88  A    between atoms: _211  and  _213
REMARK   89  A    between atoms: _213  and  _214
REMARK   90  A    between atoms: _213  and  _216
REMARK   91  A    between atoms: _219  and  _221
REMARK   92  A    between atoms: _221  and  _222
REMARK   93  A    between atoms: _221  and  _224
REMARK   94  A    between atoms: _224  and  _225
REMARK   95  A    between atoms: _227  and  _229
REMARK   96  A    between atoms: _229  and  _230
REMARK   97  A    between atoms: _229  and  _232
REMARK   98  A    between atoms: _232  and  _233
REMARK   99  A    between atoms: _235  and  _237
REMARK  100  A    between atoms: _237  and  _238
REMARK  101  A    between atoms: _237  and  _240
REMARK  102  A    between atoms: _240  and  _241
REMARK  103  A    between atoms: _247  and  _249
REMARK  104  A    between atoms: _249  and  _250
REMARK  105  A    between atoms: _249  and  _252
REMARK  106  A    between atoms: _252  and  _253
REMARK  107  A    between atoms: _256  and  _258
REMARK  108  A    between atoms: _258  and  _259
REMARK  109  A    between atoms: _258  and  _261
REMARK  110  A    between atoms: _261  and  _262
REMARK  111  A    between atoms: _265  and  _267
REMARK  112  A    between atoms: _267  and  _268
REMARK  113  A    between atoms: _267  and  _270
REMARK  114  A    between atoms: _270  and  _271
REMARK  115  A    between atoms: _271  and  _272
REMARK  116  A    between atoms: _274  and  _276
REMARK  117  A    between atoms: _276  and  _277
REMARK  118  A    between atoms: _276  and  _279
REMARK  119  A    between atoms: _279  and  _280
REMARK  120  A    between atoms: _286  and  _288
REMARK  121  A    between atoms: _288  and  _289
REMARK  122  A    between atoms: _288  and  _291
REMARK  123  A    between atoms: _293  and  _295
REMARK  124  A    between atoms: _295  and  _296
REMARK  125  A    between atoms: _299  and  _301
REMARK  126  A    between atoms: _301  and  _302
REMARK  127  A    between atoms: _304  and  _306
REMARK  128  A    between atoms: _306  and  _307
REMARK  129  A    between atoms: _306  and  _309
REMARK  130  A    between atoms: _309  and  _310
REMARK  131  A    between atoms: _310  and  _311
REMARK  132  A    between atoms: _314  and  _316
REMARK  133  A    between atoms: _316  and  _317
REMARK  134  A    between atoms: _316  and  _319
REMARK  135  A    between atoms: _319  and  _320
REMARK  136  A    between atoms: _323  and  _325
REMARK  137  A    between atoms: _325  and  _326
REMARK  138  A    between atoms: _329  and  _331
REMARK  139  A    between atoms: _331  and  _332
REMARK  140  A    between atoms: _331  and  _334
REMARK  141  A    between atoms: _334  and  _335
REMARK  142  A    between atoms: _335  and  _458
REMARK  143  A    between atoms: _336  and  _338
REMARK  144  A    between atoms: _338  and  _339
REMARK  145  A    between atoms: _338  and  _341
REMARK  146  A    between atoms: _341  and  _342
REMARK  147  A    between atoms: _342  and  _343
REMARK  148  A    between atoms: _348  and  _350
REMARK  149  A    between atoms: _350  and  _351
REMARK  150  A    between atoms: _353  and  _355
REMARK  151  A    between atoms: _355  and  _356
REMARK  152  A    between atoms: _355  and  _358
REMARK  153  A    between atoms: _358  and  _359
REMARK  154  A    between atoms: _362  and  _364
REMARK  155  A    between atoms: _364  and  _365
REMARK  156  A    between atoms: _364  and  _367
REMARK  157  A    between atoms: _367  and  _368
REMARK  158  A    between atoms: _370  and  _372
REMARK  159  A    between atoms: _372  and  _373
REMARK  160  A    between atoms: _375  and  _377
REMARK  161  A    between atoms: _377  and  _378
REMARK  162  A    between atoms: _380  and  _382
REMARK  163  A    between atoms: _382  and  _383
REMARK  164  A    between atoms: _382  and  _385
REMARK  165  A    between atoms: _385  and  _386
REMARK  166  A    between atoms: _391  and  _393
REMARK  167  A    between atoms: _393  and  _394
REMARK  168  A    between atoms: _393  and  _396
REMARK  169  A    between atoms: _396  and  _397
REMARK  170  A    between atoms: _400  and  _402
REMARK  171  A    between atoms: _402  and  _403
REMARK  172  A    between atoms: _402  and  _405
REMARK  173  A    between atoms: _408  and  _410
REMARK  174  A    between atoms: _410  and  _411
REMARK  175  A    between atoms: _410  and  _413
REMARK  176  A    between atoms: _413  and  _414
REMARK  177  A    between atoms: _416  and  _418
REMARK  178  A    between atoms: _418  and  _419
REMARK  179  A    between atoms: _418  and  _421
REMARK  180  A    between atoms: _421  and  _422
REMARK  181  A    between atoms: _432  and  _434
REMARK  182  A    between atoms: _434  and  _435
REMARK  183  A    between atoms: _437  and  _439
REMARK  184  A    between atoms: _439  and  _440
REMARK  185  A    between atoms: _439  and  _442
REMARK  186  A    between atoms: _442  and  _443
REMARK  187  A    between atoms: _443  and  _444
REMARK  188  A    between atoms: _447  and  _449
REMARK  189  A    between atoms: _449  and  _450
REMARK  190  A    between atoms: _452  and  _454
REMARK  191  A    between atoms: _454  and  _455
REMARK  192  A    between atoms: _454  and  _457
REMARK  193  A    between atoms: _457  and  _458
REMARK  194  A    between atoms: _459  and  _461
REMARK  195  A    between atoms: _461  and  _462
REMARK  196  A    between atoms: _465  and  _467
REMARK  197  A    between atoms: _467  and  _468
REMARK  198  A    between atoms: _467  and  _470
REMARK  199  A    between atoms: _470  and  _471
REMARK  200  A    between atoms: _471  and  _472
REMARK  201  A    between atoms: _472  and  _473
REMARK  202  A    between atoms: _482  and  _484
REMARK  203  A    between atoms: _484  and  _485
REMARK  204  A    between atoms: _484  and  _487
REMARK  205  A    between atoms: _487  and  _488
REMARK  206  A    between atoms: _488  and  _489
REMARK  207  A    between atoms: _489  and  _490
REMARK  208  A    between atoms: _490  and  _491
REMARK  209  A    between atoms: _495  and  _497
REMARK  210  A    between atoms: _497  and  _498
REMARK  211  A    between atoms: _497  and  _500
REMARK  212  A    between atoms: _500  and  _501
REMARK  213  A    between atoms: _506  and  _507
REMARK  214  A    between atoms: _509  and  _511
REMARK  215  A    between atoms: _511  and  _512
REMARK  216  A    between atoms: _514  and  _516
REMARK  217  A    between atoms: _516  and  _517
REMARK  218  A    between atoms: _516  and  _519
REMARK  219  A    between atoms: _519  and  _520
REMARK  220  A    between atoms: _523  and  _525
REMARK  221  A    between atoms: _525  and  _526
REMARK  222  A    between atoms: _525  and  _528
REMARK  223  A    between atoms: _528  and  _529
REMARK  224  A    between atoms: _534  and  _535
REMARK  225  A    between atoms: _537  and  _539
REMARK  226  A    between atoms: _539  and  _540
REMARK  227  A    between atoms: _539  and  _542
REMARK  228  A    between atoms: _542  and  _543
REMARK                            x       y       z     vdW  Elec       q    Type
REMARK                         _______ _______ _______ _____ _____    ______ ____
ROOT
ATOM      1  O   HOH     1      -5.654   7.206  28.922  0.00  0.00    +0.000 OA
ENDROOT
TORSDOF 0
REMARK  Name = ../refined-set-2016/2y5f/2y5f_pocket.pdb
REMARK  228 active torsions:
REMARK  status: ('A' for Active; 'I' for Inactive)
REMARK    1  A    between atoms: _1  and  _5
REMARK    2  A    between atoms: _5  and  _6
REMARK    3  A    between atoms: _5  and  _8
REMARK    4  A    between atoms: _8  and  _9
REMARK    5  A    between atoms: _12  and  _14
REMARK    6  A    between atoms: _14  and  _15
REMARK    7  A    between atoms: _14  and  _17
REMARK    8  A    between atoms: _20  and  _22
REMARK    9  A    between atoms: _22  and  _23
REMARK   10  A    between atoms: _22  and  _25
REMARK   11  A    between atoms: _25  and  _26
REMARK   12  A    between atoms: _32  and  _34
REMARK   13  A    between atoms: _34  and  _35
REMARK   14  A    between atoms: _34  and  _37
REMARK   15  A    between atoms: _39  and  _41
REMARK   16  A    between atoms: _41  and  _42
REMARK   17  A    between atoms: _41  and  _44
REMARK   18  A    between atoms: _44  and  _45
REMARK   19  A    between atoms: _50  and  _52
REMARK   20  A    between atoms: _52  and  _53
REMARK   21  A    between atoms: _52  and  _55
REMARK   22  A    between atoms: _55  and  _56
REMARK   23  A    between atoms: _56  and  _57
REMARK   24  A    between atoms: _62  and  _64
REMARK   25  A    between atoms: _64  and  _65
REMARK   26  A    between atoms: _64  and  _67
REMARK   27  A    between atoms: _67  and  _68
REMARK   28  A    between atoms: _74  and  _76
REMARK   29  A    between atoms: _76  and  _77
REMARK   30  A    between atoms: _76  and  _79
REMARK   31  A    between atoms: _79  and  _80
REMARK   32  A    between atoms: _83  and  _85
REMARK   33  A    between atoms: _85  and  _86
REMARK   34  A    between atoms: _85  and  _88
REMARK   35  A    between atoms: _88  and  _89
REMARK   36  A    between atoms: _89  and  _90
REMARK   37  A    between atoms: _90  and  _91
REMARK   38  A    between atoms: _91  and  _92
REMARK   39  A    between atoms: _96  and  _98
REMARK   40  A    between atoms: _98  and  _99
REMARK   41  A    between atoms: _98  and  _101
REMARK   42  A    between atoms: _101  and  _102
REMARK   43  A    between atoms: _102  and  _103
REMARK   44  A    between atoms: _106  and  _108
REMARK   45  A    between atoms: _108  and  _109
REMARK   46  A    between atoms: _108  and  _111
REMARK   47  A    between atoms: _111  and  _112
REMARK   48  A    between atoms: _115  and  _117
REMARK   49  A    between atoms: _117  and  _118
REMARK   50  A    between atoms: _117  and  _120
REMARK   51  A    between atoms: _120  and  _121
REMARK   52  A    between atoms: _126  and  _127
REMARK   53  A    between atoms: _129  and  _131
REMARK   54  A    between atoms: _131  and  _132
REMARK   55  A    between atoms: _131  and  _134
REMARK   56  A    between atoms: _134  and  _135
REMARK   57  A    between atoms: _138  and  _140
REMARK   58  A    between atoms: _140  and  _141
REMARK   59  A    between atoms: _140  and  _143
REMARK   60  A    between atoms: _143  and  _144
REMARK   61  A    between atoms: _147  and  _149
REMARK   62  A    between atoms: _149  and  _150
REMARK   63  A    between atoms: _149  and  _152
REMARK   64  A    between atoms: _155  and  _157
REMARK   65  A    between atoms: _157  and  _158
REMARK   66  A    between atoms: _157  and  _160
REMARK   67  A    between atoms: _160  and  _161
REMARK   68  A    between atoms: _161  and  _162
REMARK   69  A    between atoms: _162  and  _163
REMARK   70  A    between atoms: _172  and  _174
REMARK   71  A    between atoms: _174  and  _175
REMARK   72  A    between atoms: _174  and  _177
REMARK   73  A    between atoms: _177  and  _178
REMARK   74  A    between atoms: _183  and  _185
REMARK   75  A    between atoms: _185  and  _186
REMARK   76  A    between atoms: _185  and  _188
REMARK   77  A    between atoms: _188  and  _189
REMARK   78  A    between atoms: _189  and  _190
REMARK   79  A    between atoms: _193  and  _195
REMARK   80  A    between atoms: _195  and  _196
REMARK   81  A    between atoms: _195  and  _198
REMARK   82  A    between atoms: _198  and  _199
REMARK   83  A    between atoms: _199  and  _200
REMARK   84  A    between atoms: _200  and  _201
REMARK   85  A    between atoms: _201  and  _202
REMARK   86  A    between atoms: _206  and  _208
REMARK   87  A    between atoms: _208  and  _209
REMARK   88  A    between atoms: _211  and  _213
REMARK   89  A    between atoms: _213  and  _214
REMARK   90  A    between atoms: _213  and  _216
REMARK   91  A    between atoms: _219  and  _221
REMARK   92  A    between atoms: _221  and  _222
REMARK   93  A    between atoms: _221  and  _224
REMARK   94  A    between atoms: _224  and  _225
REMARK   95  A    between atoms: _227  and  _229
REMARK   96  A    between atoms: _229  and  _230
REMARK   97  A    between atoms: _229  and  _232
REMARK   98  A    between atoms: _232  and  _233
REMARK   99  A    between atoms: _235  and  _237
REMARK  100  A    between atoms: _237  and  _238
REMARK  101  A    between atoms: _237  and  _240
REMARK  102  A    between atoms: _240  and  _241
REMARK  103  A    between atoms: _247  and  _249
REMARK  104  A    between atoms: _249  and  _250
REMARK  105  A    between atoms: _249  and  _252
REMARK  106  A    between atoms: _252  and  _253
REMARK  107  A    between atoms: _256  and  _258
REMARK  108  A    between atoms: _258  and  _259
REMARK  109  A    between atoms: _258  and  _261
REMARK  110  A    between atoms: _261  and  _262
REMARK  111  A    between atoms: _265  and  _267
REMARK  112  A    between atoms: _267  and  _268
REMARK  113  A    between atoms: _267  and  _270
REMARK  114  A    between atoms: _270  and  _271
REMARK  115  A    between atoms: _271  and  _272
REMARK  116  A    between atoms: _274  and  _276
REMARK  117  A    between atoms: _276  and  _277
REMARK  118  A    between atoms: _276  and  _279
REMARK  119  A    between atoms: _279  and  _280
REMARK  120  A    between atoms: _286  and  _288
REMARK  121  A    between atoms: _288  and  _289
REMARK  122  A    between atoms: _288  and  _291
REMARK  123  A    between atoms: _293  and  _295
REMARK  124  A    between atoms: _295  and  _296
REMARK  125  A    between atoms: _299  and  _301
REMARK  126  A    between atoms: _301  and  _302
REMARK  127  A    between atoms: _304  and  _306
REMARK  128  A    between atoms: _306  and  _307
REMARK  129  A    between atoms: _306  and  _309
REMARK  130  A    between atoms: _309  and  _310
REMARK  131  A    between atoms: _310  and  _311
REMARK  132  A    between atoms: _314  and  _316
REMARK  133  A    between atoms: _316  and  _317
REMARK  134  A    between atoms: _316  and  _319
REMARK  135  A    between atoms: _319  and  _320
REMARK  136  A    between atoms: _323  and  _325
REMARK  137  A    between atoms: _325  and  _326
REMARK  138  A    between atoms: _329  and  _331
REMARK  139  A    between atoms: _331  and  _332
REMARK  140  A    between atoms: _331  and  _334
REMARK  141  A    between atoms: _334  and  _335
REMARK  142  A    between atoms: _335  and  _458
REMARK  143  A    between atoms: _336  and  _338
REMARK  144  A    between atoms: _338  and  _339
REMARK  145  A    between atoms: _338  and  _341
REMARK  146  A    between atoms: _341  and  _342
REMARK  147  A    between atoms: _342  and  _343
REMARK  148  A    between atoms: _348  and  _350
REMARK  149  A    between atoms: _350  and  _351
REMARK  150  A    between atoms: _353  and  _355
REMARK  151  A    between atoms: _355  and  _356
REMARK  152  A    between atoms: _355  and  _358
REMARK  153  A    between atoms: _358  and  _359
REMARK  154  A    between atoms: _362  and  _364
REMARK  155  A    between atoms: _364  and  _365
REMARK  156  A    between atoms: _364  and  _367
REMARK  157  A    between atoms: _367  and  _368
REMARK  158  A    between atoms: _370  and  _372
REMARK  159  A    between atoms: _372  and  _373
REMARK  160  A    between atoms: _375  and  _377
REMARK  161  A    between atoms: _377  and  _378
REMARK  162  A    between atoms: _380  and  _382
REMARK  163  A    between atoms: _382  and  _383
REMARK  164  A    between atoms: _382  and  _385
REMARK  165  A    between atoms: _385  and  _386
REMARK  166  A    between atoms: _391  and  _393
REMARK  167  A    between atoms: _393  and  _394
REMARK  168  A    between atoms: _393  and  _396
REMARK  169  A    between atoms: _396  and  _397
REMARK  170  A    between atoms: _400  and  _402
REMARK  171  A    between atoms: _402  and  _403
REMARK  172  A    between atoms: _402  and  _405
REMARK  173  A    between atoms: _408  and  _410
REMARK  174  A    between atoms: _410  and  _411
REMARK  175  A    between atoms: _410  and  _413
REMARK  176  A    between atoms: _413  and  _414
REMARK  177  A    between atoms: _416  and  _418
REMARK  178  A    between atoms: _418  and  _419
REMARK  179  A    between atoms: _418  and  _421
REMARK  180  A    between atoms: _421  and  _422
REMARK  181  A    between atoms: _432  and  _434
REMARK  182  A    between atoms: _434  and  _435
REMARK  183  A    between atoms: _437  and  _439
REMARK  184  A    between atoms: _439  and  _440
REMARK  185  A    between atoms: _439  and  _442
REMARK  186  A    between atoms: _442  and  _443
REMARK  187  A    between atoms: _443  and  _444
REMARK  188  A    between atoms: _447  and  _449
REMARK  189  A    between atoms: _449  and  _450
REMARK  190  A    between atoms: _452  and  _454
REMARK  191  A    between atoms: _454  and  _455
REMARK  192  A    between atoms: _454  and  _457
REMARK  193  A    between atoms: _457  and  _458
REMARK  194  A    between atoms: _459  and  _461
REMARK  195  A    between atoms: _461  and  _462
REMARK  196  A    between atoms: _465  and  _467
REMARK  197  A    between atoms: _467  and  _468
REMARK  198  A    between atoms: _467  and  _470
REMARK  199  A    between atoms: _470  and  _471
REMARK  200  A    between atoms: _471  and  _472
REMARK  201  A    between atoms: _472  and  _473
REMARK  202  A    between atoms: _482  and  _484
REMARK  203  A    between atoms: _484  and  _485
REMARK  204  A    between atoms: _484  and  _487
REMARK  205  A    between atoms: _487  and  _488
REMARK  206  A    between atoms: _488  and  _489
REMARK  207  A    between atoms: _489  and  _490
REMARK  208  A    between atoms: _490  and  _491
REMARK  209  A    between atoms: _495  and  _497
REMARK  210  A    between atoms: _497  and  _498
REMARK  211  A    between atoms: _497  and  _500
REMARK  212  A    between atoms: _500  and  _501
REMARK  213  A    between atoms: _506  and  _507
REMARK  214  A    between atoms: _509  and  _511
REMARK  215  A    between atoms: _511  and  _512
REMARK  216  A    between atoms: _514  and  _516
REMARK  217  A    between atoms: _516  and  _517
REMARK  218  A    between atoms: _516  and  _519
REMARK  219  A    between atoms: _519  and  _520
REMARK  220  A    between atoms: _523  and  _525
REMARK  221  A    between atoms: _525  and  _526
REMARK  222  A    between atoms: _525  and  _528
REMARK  223  A    between atoms: _528  and  _529
REMARK  224  A    between atoms: _534  and  _535
REMARK  225  A    between atoms: _537  and  _539
REMARK  226  A    between atoms: _539  and  _540
REMARK  227  A    between atoms: _539  and  _542
REMARK  228  A    between atoms: _542  and  _543
REMARK                            x       y       z     vdW  Elec       q    Type
REMARK                         _______ _______ _______ _____ _____    ______ ____
ROOT
ATOM      1  O   HOH     1       3.724  13.002  23.599  0.00  0.00    +0.000 OA
ENDROOT
TORSDOF 0
REMARK  Name = ../refined-set-2016/2y5f/2y5f_pocket.pdb
REMARK  228 active torsions:
REMARK  status: ('A' for Active; 'I' for Inactive)
REMARK    1  A    between atoms: _1  and  _5
REMARK    2  A    between atoms: _5  and  _6
REMARK    3  A    between atoms: _5  and  _8
REMARK    4  A    between atoms: _8  and  _9
REMARK    5  A    between atoms: _12  and  _14
REMARK    6  A    between atoms: _14  and  _15
REMARK    7  A    between atoms: _14  and  _17
REMARK    8  A    between atoms: _20  and  _22
REMARK    9  A    between atoms: _22  and  _23
REMARK   10  A    between atoms: _22  and  _25
REMARK   11  A    between atoms: _25  and  _26
REMARK   12  A    between atoms: _32  and  _34
REMARK   13  A    between atoms: _34  and  _35
REMARK   14  A    between atoms: _34  and  _37
REMARK   15  A    between atoms: _39  and  _41
REMARK   16  A    between atoms: _41  and  _42
REMARK   17  A    between atoms: _41  and  _44
REMARK   18  A    between atoms: _44  and  _45
REMARK   19  A    between atoms: _50  and  _52
REMARK   20  A    between atoms: _52  and  _53
REMARK   21  A    between atoms: _52  and  _55
REMARK   22  A    between atoms: _55  and  _56
REMARK   23  A    between atoms: _56  and  _57
REMARK   24  A    between atoms: _62  and  _64
REMARK   25  A    between atoms: _64  and  _65
REMARK   26  A    between atoms: _64  and  _67
REMARK   27  A    between atoms: _67  and  _68
REMARK   28  A    between atoms: _74  and  _76
REMARK   29  A    between atoms: _76  and  _77
REMARK   30  A    between atoms: _76  and  _79
REMARK   31  A    between atoms: _79  and  _80
REMARK   32  A    between atoms: _83  and  _85
REMARK   33  A    between atoms: _85  and  _86
REMARK   34  A    between atoms: _85  and  _88
REMARK   35  A    between atoms: _88  and  _89
REMARK   36  A    between atoms: _89  and  _90
REMARK   37  A    between atoms: _90  and  _91
REMARK   38  A    between atoms: _91  and  _92
REMARK   39  A    between atoms: _96  and  _98
REMARK   40  A    between atoms: _98  and  _99
REMARK   41  A    between atoms: _98  and  _101
REMARK   42  A    between atoms: _101  and  _102
REMARK   43  A    between atoms: _102  and  _103
REMARK   44  A    between atoms: _106  and  _108
REMARK   45  A    between atoms: _108  and  _109
REMARK   46  A    between atoms: _108  and  _111
REMARK   47  A    between atoms: _111  and  _112
REMARK   48  A    between atoms: _115  and  _117
REMARK   49  A    between atoms: _117  and  _118
REMARK   50  A    between atoms: _117  and  _120
REMARK   51  A    between atoms: _120  and  _121
REMARK   52  A    between atoms: _126  and  _127
REMARK   53  A    between atoms: _129  and  _131
REMARK   54  A    between atoms: _131  and  _132
REMARK   55  A    between atoms: _131  and  _134
REMARK   56  A    between atoms: _134  and  _135
REMARK   57  A    between atoms: _138  and  _140
REMARK   58  A    between atoms: _140  and  _141
REMARK   59  A    between atoms: _140  and  _143
REMARK   60  A    between atoms: _143  and  _144
REMARK   61  A    between atoms: _147  and  _149
REMARK   62  A    between atoms: _149  and  _150
REMARK   63  A    between atoms: _149  and  _152
REMARK   64  A    between atoms: _155  and  _157
REMARK   65  A    between atoms: _157  and  _158
REMARK   66  A    between atoms: _157  and  _160
REMARK   67  A    between atoms: _160  and  _161
REMARK   68  A    between atoms: _161  and  _162
REMARK   69  A    between atoms: _162  and  _163
REMARK   70  A    between atoms: _172  and  _174
REMARK   71  A    between atoms: _174  and  _175
REMARK   72  A    between atoms: _174  and  _177
REMARK   73  A    between atoms: _177  and  _178
REMARK   74  A    between atoms: _183  and  _185
REMARK   75  A    between atoms: _185  and  _186
REMARK   76  A    between atoms: _185  and  _188
REMARK   77  A    between atoms: _188  and  _189
REMARK   78  A    between atoms: _189  and  _190
REMARK   79  A    between atoms: _193  and  _195
REMARK   80  A    between atoms: _195  and  _196
REMARK   81  A    between atoms: _195  and  _198
REMARK   82  A    between atoms: _198  and  _199
REMARK   83  A    between atoms: _199  and  _200
REMARK   84  A    between atoms: _200  and  _201
REMARK   85  A    between atoms: _201  and  _202
REMARK   86  A    between atoms: _206  and  _208
REMARK   87  A    between atoms: _208  and  _209
REMARK   88  A    between atoms: _211  and  _213
REMARK   89  A    between atoms: _213  and  _214
REMARK   90  A    between atoms: _213  and  _216
REMARK   91  A    between atoms: _219  and  _221
REMARK   92  A    between atoms: _221  and  _222
REMARK   93  A    between atoms: _221  and  _224
REMARK   94  A    between atoms: _224  and  _225
REMARK   95  A    between atoms: _227  and  _229
REMARK   96  A    between atoms: _229  and  _230
REMARK   97  A    between atoms: _229  and  _232
REMARK   98  A    between atoms: _232  and  _233
REMARK   99  A    between atoms: _235  and  _237
REMARK  100  A    between atoms: _237  and  _238
REMARK  101  A    between atoms: _237  and  _240
REMARK  102  A    between atoms: _240  and  _241
REMARK  103  A    between atoms: _247  and  _249
REMARK  104  A    between atoms: _249  and  _250
REMARK  105  A    between atoms: _249  and  _252
REMARK  106  A    between atoms: _252  and  _253
REMARK  107  A    between atoms: _256  and  _258
REMARK  108  A    between atoms: _258  and  _259
REMARK  109  A    between atoms: _258  and  _261
REMARK  110  A    between atoms: _261  and  _262
REMARK  111  A    between atoms: _265  and  _267
REMARK  112  A    between atoms: _267  and  _268
REMARK  113  A    between atoms: _267  and  _270
REMARK  114  A    between atoms: _270  and  _271
REMARK  115  A    between atoms: _271  and  _272
REMARK  116  A    between atoms: _274  and  _276
REMARK  117  A    between atoms: _276  and  _277
REMARK  118  A    between atoms: _276  and  _279
REMARK  119  A    between atoms: _279  and  _280
REMARK  120  A    between atoms: _286  and  _288
REMARK  121  A    between atoms: _288  and  _289
REMARK  122  A    between atoms: _288  and  _291
REMARK  123  A    between atoms: _293  and  _295
REMARK  124  A    between atoms: _295  and  _296
REMARK  125  A    between atoms: _299  and  _301
REMARK  126  A    between atoms: _301  and  _302
REMARK  127  A    between atoms: _304  and  _306
REMARK  128  A    between atoms: _306  and  _307
REMARK  129  A    between atoms: _306  and  _309
REMARK  130  A    between atoms: _309  and  _310
REMARK  131  A    between atoms: _310  and  _311
REMARK  132  A    between atoms: _314  and  _316
REMARK  133  A    between atoms: _316  and  _317
REMARK  134  A    between atoms: _316  and  _319
REMARK  135  A    between atoms: _319  and  _320
REMARK  136  A    between atoms: _323  and  _325
REMARK  137  A    between atoms: _325  and  _326
REMARK  138  A    between atoms: _329  and  _331
REMARK  139  A    between atoms: _331  and  _332
REMARK  140  A    between atoms: _331  and  _334
REMARK  141  A    between atoms: _334  and  _335
REMARK  142  A    between atoms: _335  and  _458
REMARK  143  A    between atoms: _336  and  _338
REMARK  144  A    between atoms: _338  and  _339
REMARK  145  A    between atoms: _338  and  _341
REMARK  146  A    between atoms: _341  and  _342
REMARK  147  A    between atoms: _342  and  _343
REMARK  148  A    between atoms: _348  and  _350
REMARK  149  A    between atoms: _350  and  _351
REMARK  150  A    between atoms: _353  and  _355
REMARK  151  A    between atoms: _355  and  _356
REMARK  152  A    between atoms: _355  and  _358
REMARK  153  A    between atoms: _358  and  _359
REMARK  154  A    between atoms: _362  and  _364
REMARK  155  A    between atoms: _364  and  _365
REMARK  156  A    between atoms: _364  and  _367
REMARK  157  A    between atoms: _367  and  _368
REMARK  158  A    between atoms: _370  and  _372
REMARK  159  A    between atoms: _372  and  _373
REMARK  160  A    between atoms: _375  and  _377
REMARK  161  A    between atoms: _377  and  _378
REMARK  162  A    between atoms: _380  and  _382
REMARK  163  A    between atoms: _382  and  _383
REMARK  164  A    between atoms: _382  and  _385
REMARK  165  A    between atoms: _385  and  _386
REMARK  166  A    between atoms: _391  and  _393
REMARK  167  A    between atoms: _393  and  _394
REMARK  168  A    between atoms: _393  and  _396
REMARK  169  A    between atoms: _396  and  _397
REMARK  170  A    between atoms: _400  and  _402
REMARK  171  A    between atoms: _402  and  _403
REMARK  172  A    between atoms: _402  and  _405
REMARK  173  A    between atoms: _408  and  _410
REMARK  174  A    between atoms: _410  and  _411
REMARK  175  A    between atoms: _410  and  _413
REMARK  176  A    between atoms: _413  and  _414
REMARK  177  A    between atoms: _416  and  _418
REMARK  178  A    between atoms: _418  and  _419
REMARK  179  A    between atoms: _418  and  _421
REMARK  180  A    between atoms: _421  and  _422
REMARK  181  A    between atoms: _432  and  _434
REMARK  182  A    between atoms: _434  and  _435
REMARK  183  A    between atoms: _437  and  _439
REMARK  184  A    between atoms: _439  and  _440
REMARK  185  A    between atoms: _439  and  _442
REMARK  186  A    between atoms: _442  and  _443
REMARK  187  A    between atoms: _443  and  _444
REMARK  188  A    between atoms: _447  and  _449
REMARK  189  A    between atoms: _449  and  _450
REMARK  190  A    between atoms: _452  and  _454
REMARK  191  A    between atoms: _454  and  _455
REMARK  192  A    between atoms: _454  and  _457
REMARK  193  A    between atoms: _457  and  _458
REMARK  194  A    between atoms: _459  and  _461
REMARK  195  A    between atoms: _461  and  _462
REMARK  196  A    between atoms: _465  and  _467
REMARK  197  A    between atoms: _467  and  _468
REMARK  198  A    between atoms: _467  and  _470
REMARK  199  A    between atoms: _470  and  _471
REMARK  200  A    between atoms: _471  and  _472
REMARK  201  A    between atoms: _472  and  _473
REMARK  202  A    between atoms: _482  and  _484
REMARK  203  A    between atoms: _484  and  _485
REMARK  204  A    between atoms: _484  and  _487
REMARK  205  A    between atoms: _487  and  _488
REMARK  206  A    between atoms: _488  and  _489
REMARK  207  A    between atoms: _489  and  _490
REMARK  208  A    between atoms: _490  and  _491
REMARK  209  A    between atoms: _495  and  _497
REMARK  210  A    between atoms: _497  and  _498
REMARK  211  A    between atoms: _497  and  _500
REMARK  212  A    between atoms: _500  and  _501
REMARK  213  A    between atoms: _506  and  _507
REMARK  214  A    between atoms: _509  and  _511
REMARK  215  A    between atoms: _511  and  _512
REMARK  216  A    between atoms: _514  and  _516
REMARK  217  A    between atoms: _516  and  _517
REMARK  218  A    between atoms: _516  and  _519
REMARK  219  A    between atoms: _519  and  _520
REMARK  220  A    between atoms: _523  and  _525
REMARK  221  A    between atoms: _525  and  _526
REMARK  222  A    between atoms: _525  and  _528
REMARK  223  A    between atoms: _528  and  _529
REMARK  224  A    between atoms: _534  and  _535
REMARK  225  A    between atoms: _537  and  _539
REMARK  226  A    between atoms: _539  and  _540
REMARK  227  A    between atoms: _539  and  _542
REMARK  228  A    between atoms: _542  and  _543
REMARK                            x       y       z     vdW  Elec       q    Type
REMARK                         _______ _______ _______ _____ _____    ______ ____
ROOT
ATOM      1  O   HOH     1      -0.389   9.888  21.773  0.00  0.00    +0.000 OA
ENDROOT
TORSDOF 0
REMARK  Name = ../refined-set-2016/2y5f/2y5f_pocket.pdb
REMARK  228 active torsions:
REMARK  status: ('A' for Active; 'I' for Inactive)
REMARK    1  A    between atoms: _1  and  _5
REMARK    2  A    between atoms: _5  and  _6
REMARK    3  A    between atoms: _5  and  _8
REMARK    4  A    between atoms: _8  and  _9
REMARK    5  A    between atoms: _12  and  _14
REMARK    6  A    between atoms: _14  and  _15
REMARK    7  A    between atoms: _14  and  _17
REMARK    8  A    between atoms: _20  and  _22
REMARK    9  A    between atoms: _22  and  _23
REMARK   10  A    between atoms: _22  and  _25
REMARK   11  A    between atoms: _25  and  _26
REMARK   12  A    between atoms: _32  and  _34
REMARK   13  A    between atoms: _34  and  _35
REMARK   14  A    between atoms: _34  and  _37
REMARK   15  A    between atoms: _39  and  _41
REMARK   16  A    between atoms: _41  and  _42
REMARK   17  A    between atoms: _41  and  _44
REMARK   18  A    between atoms: _44  and  _45
REMARK   19  A    between atoms: _50  and  _52
REMARK   20  A    between atoms: _52  and  _53
REMARK   21  A    between atoms: _52  and  _55
REMARK   22  A    between atoms: _55  and  _56
REMARK   23  A    between atoms: _56  and  _57
REMARK   24  A    between atoms: _62  and  _64
REMARK   25  A    between atoms: _64  and  _65
REMARK   26  A    between atoms: _64  and  _67
REMARK   27  A    between atoms: _67  and  _68
REMARK   28  A    between atoms: _74  and  _76
REMARK   29  A    between atoms: _76  and  _77
REMARK   30  A    between atoms: _76  and  _79
REMARK   31  A    between atoms: _79  and  _80
REMARK   32  A    between atoms: _83  and  _85
REMARK   33  A    between atoms: _85  and  _86
REMARK   34  A    between atoms: _85  and  _88
REMARK   35  A    between atoms: _88  and  _89
REMARK   36  A    between atoms: _89  and  _90
REMARK   37  A    between atoms: _90  and  _91
REMARK   38  A    between atoms: _91  and  _92
REMARK   39  A    between atoms: _96  and  _98
REMARK   40  A    between atoms: _98  and  _99
REMARK   41  A    between atoms: _98  and  _101
REMARK   42  A    between atoms: _101  and  _102
REMARK   43  A    between atoms: _102  and  _103
REMARK   44  A    between atoms: _106  and  _108
REMARK   45  A    between atoms: _108  and  _109
REMARK   46  A    between atoms: _108  and  _111
REMARK   47  A    between atoms: _111  and  _112
REMARK   48  A    between atoms: _115  and  _117
REMARK   49  A    between atoms: _117  and  _118
REMARK   50  A    between atoms: _117  and  _120
REMARK   51  A    between atoms: _120  and  _121
REMARK   52  A    between atoms: _126  and  _127
REMARK   53  A    between atoms: _129  and  _131
REMARK   54  A    between atoms: _131  and  _132
REMARK   55  A    between atoms: _131  and  _134
REMARK   56  A    between atoms: _134  and  _135
REMARK   57  A    between atoms: _138  and  _140
REMARK   58  A    between atoms: _140  and  _141
REMARK   59  A    between atoms: _140  and  _143
REMARK   60  A    between atoms: _143  and  _144
REMARK   61  A    between atoms: _147  and  _149
REMARK   62  A    between atoms: _149  and  _150
REMARK   63  A    between atoms: _149  and  _152
REMARK   64  A    between atoms: _155  and  _157
REMARK   65  A    between atoms: _157  and  _158
REMARK   66  A    between atoms: _157  and  _160
REMARK   67  A    between atoms: _160  and  _161
REMARK   68  A    between atoms: _161  and  _162
REMARK   69  A    between atoms: _162  and  _163
REMARK   70  A    between atoms: _172  and  _174
REMARK   71  A    between atoms: _174  and  _175
REMARK   72  A    between atoms: _174  and  _177
REMARK   73  A    between atoms: _177  and  _178
REMARK   74  A    between atoms: _183  and  _185
REMARK   75  A    between atoms: _185  and  _186
REMARK   76  A    between atoms: _185  and  _188
REMARK   77  A    between atoms: _188  and  _189
REMARK   78  A    between atoms: _189  and  _190
REMARK   79  A    between atoms: _193  and  _195
REMARK   80  A    between atoms: _195  and  _196
REMARK   81  A    between atoms: _195  and  _198
REMARK   82  A    between atoms: _198  and  _199
REMARK   83  A    between atoms: _199  and  _200
REMARK   84  A    between atoms: _200  and  _201
REMARK   85  A    between atoms: _201  and  _202
REMARK   86  A    between atoms: _206  and  _208
REMARK   87  A    between atoms: _208  and  _209
REMARK   88  A    between atoms: _211  and  _213
REMARK   89  A    between atoms: _213  and  _214
REMARK   90  A    between atoms: _213  and  _216
REMARK   91  A    between atoms: _219  and  _221
REMARK   92  A    between atoms: _221  and  _222
REMARK   93  A    between atoms: _221  and  _224
REMARK   94  A    between atoms: _224  and  _225
REMARK   95  A    between atoms: _227  and  _229
REMARK   96  A    between atoms: _229  and  _230
REMARK   97  A    between atoms: _229  and  _232
REMARK   98  A    between atoms: _232  and  _233
REMARK   99  A    between atoms: _235  and  _237
REMARK  100  A    between atoms: _237  and  _238
REMARK  101  A    between atoms: _237  and  _240
REMARK  102  A    between atoms: _240  and  _241
REMARK  103  A    between atoms: _247  and  _249
REMARK  104  A    between atoms: _249  and  _250
REMARK  105  A    between atoms: _249  and  _252
REMARK  106  A    between atoms: _252  and  _253
REMARK  107  A    between atoms: _256  and  _258
REMARK  108  A    between atoms: _258  and  _259
REMARK  109  A    between atoms: _258  and  _261
REMARK  110  A    between atoms: _261  and  _262
REMARK  111  A    between atoms: _265  and  _267
REMARK  112  A    between atoms: _267  and  _268
REMARK  113  A    between atoms: _267  and  _270
REMARK  114  A    between atoms: _270  and  _271
REMARK  115  A    between atoms: _271  and  _272
REMARK  116  A    between atoms: _274  and  _276
REMARK  117  A    between atoms: _276  and  _277
REMARK  118  A    between atoms: _276  and  _279
REMARK  119  A    between atoms: _279  and  _280
REMARK  120  A    between atoms: _286  and  _288
REMARK  121  A    between atoms: _288  and  _289
REMARK  122  A    between atoms: _288  and  _291
REMARK  123  A    between atoms: _293  and  _295
REMARK  124  A    between atoms: _295  and  _296
REMARK  125  A    between atoms: _299  and  _301
REMARK  126  A    between atoms: _301  and  _302
REMARK  127  A    between atoms: _304  and  _306
REMARK  128  A    between atoms: _306  and  _307
REMARK  129  A    between atoms: _306  and  _309
REMARK  130  A    between atoms: _309  and  _310
REMARK  131  A    between atoms: _310  and  _311
REMARK  132  A    between atoms: _314  and  _316
REMARK  133  A    between atoms: _316  and  _317
REMARK  134  A    between atoms: _316  and  _319
REMARK  135  A    between atoms: _319  and  _320
REMARK  136  A    between atoms: _323  and  _325
REMARK  137  A    between atoms: _325  and  _326
REMARK  138  A    between atoms: _329  and  _331
REMARK  139  A    between atoms: _331  and  _332
REMARK  140  A    between atoms: _331  and  _334
REMARK  141  A    between atoms: _334  and  _335
REMARK  142  A    between atoms: _335  and  _458
REMARK  143  A    between atoms: _336  and  _338
REMARK  144  A    between atoms: _338  and  _339
REMARK  145  A    between atoms: _338  and  _341
REMARK  146  A    between atoms: _341  and  _342
REMARK  147  A    between atoms: _342  and  _343
REMARK  148  A    between atoms: _348  and  _350
REMARK  149  A    between atoms: _350  and  _351
REMARK  150  A    between atoms: _353  and  _355
REMARK  151  A    between atoms: _355  and  _356
REMARK  152  A    between atoms: _355  and  _358
REMARK  153  A    between atoms: _358  and  _359
REMARK  154  A    between atoms: _362  and  _364
REMARK  155  A    between atoms: _364  and  _365
REMARK  156  A    between atoms: _364  and  _367
REMARK  157  A    between atoms: _367  and  _368
REMARK  158  A    between atoms: _370  and  _372
REMARK  159  A    between atoms: _372  and  _373
REMARK  160  A    between atoms: _375  and  _377
REMARK  161  A    between atoms: _377  and  _378
REMARK  162  A    between atoms: _380  and  _382
REMARK  163  A    between atoms: _382  and  _383
REMARK  164  A    between atoms: _382  and  _385
REMARK  165  A    between atoms: _385  and  _386
REMARK  166  A    between atoms: _391  and  _393
REMARK  167  A    between atoms: _393  and  _394
REMARK  168  A    between atoms: _393  and  _396
REMARK  169  A    between atoms: _396  and  _397
REMARK  170  A    between atoms: _400  and  _402
REMARK  171  A    between atoms: _402  and  _403
REMARK  172  A    between atoms: _402  and  _405
REMARK  173  A    between atoms: _408  and  _410
REMARK  174  A    between atoms: _410  and  _411
REMARK  175  A    between atoms: _410  and  _413
REMARK  176  A    between atoms: _413  and  _414
REMARK  177  A    between atoms: _416  and  _418
REMARK  178  A    between atoms: _418  and  _419
REMARK  179  A    between atoms: _418  and  _421
REMARK  180  A    between atoms: _421  and  _422
REMARK  181  A    between atoms: _432  and  _434
REMARK  182  A    between atoms: _434  and  _435
REMARK  183  A    between atoms: _437  and  _439
REMARK  184  A    between atoms: _439  and  _440
REMARK  185  A    between atoms: _439  and  _442
REMARK  186  A    between atoms: _442  and  _443
REMARK  187  A    between atoms: _443  and  _444
REMARK  188  A    between atoms: _447  and  _449
REMARK  189  A    between atoms: _449  and  _450
REMARK  190  A    between atoms: _452  and  _454
REMARK  191  A    between atoms: _454  and  _455
REMARK  192  A    between atoms: _454  and  _457
REMARK  193  A    between atoms: _457  and  _458
REMARK  194  A    between atoms: _459  and  _461
REMARK  195  A    between atoms: _461  and  _462
REMARK  196  A    between atoms: _465  and  _467
REMARK  197  A    between atoms: _467  and  _468
REMARK  198  A    between atoms: _467  and  _470
REMARK  199  A    between atoms: _470  and  _471
REMARK  200  A    between atoms: _471  and  _472
REMARK  201  A    between atoms: _472  and  _473
REMARK  202  A    between atoms: _482  and  _484
REMARK  203  A    between atoms: _484  and  _485
REMARK  204  A    between atoms: _484  and  _487
REMARK  205  A    between atoms: _487  and  _488
REMARK  206  A    between atoms: _488  and  _489
REMARK  207  A    between atoms: _489  and  _490
REMARK  208  A    between atoms: _490  and  _491
REMARK  209  A    between atoms: _495  and  _497
REMARK  210  A    between atoms: _497  and  _498
REMARK  211  A    between atoms: _497  and  _500
REMARK  212  A    between atoms: _500  and  _501
REMARK  213  A    between atoms: _506  and  _507
REMARK  214  A    between atoms: _509  and  _511
REMARK  215  A    between atoms: _511  and  _512
REMARK  216  A    between atoms: _514  and  _516
REMARK  217  A    between atoms: _516  and  _517
REMARK  218  A    between atoms: _516  and  _519
REMARK  219  A    between atoms: _519  and  _520
REMARK  220  A    between atoms: _523  and  _525
REMARK  221  A    between atoms: _525  and  _526
REMARK  222  A    between atoms: _525  and  _528
REMARK  223  A    between atoms: _528  and  _529
REMARK  224  A    between atoms: _534  and  _535
REMARK  225  A    between atoms: _537  and  _539
REMARK  226  A    between atoms: _539  and  _540
REMARK  227  A    between atoms: _539  and  _542
REMARK  228  A    between atoms: _542  and  _543
REMARK                            x       y       z     vdW  Elec       q    Type
REMARK                         _______ _______ _______ _____ _____    ______ ____
ROOT
ATOM      1  O   HOH     1      -6.590  11.794  24.121  0.00  0.00    +0.000 OA
ENDROOT
TORSDOF 0
REMARK  Name = ../refined-set-2016/2y5f/2y5f_pocket.pdb
REMARK  228 active torsions:
REMARK  status: ('A' for Active; 'I' for Inactive)
REMARK    1  A    between atoms: _1  and  _5
REMARK    2  A    between atoms: _5  and  _6
REMARK    3  A    between atoms: _5  and  _8
REMARK    4  A    between atoms: _8  and  _9
REMARK    5  A    between atoms: _12  and  _14
REMARK    6  A    between atoms: _14  and  _15
REMARK    7  A    between atoms: _14  and  _17
REMARK    8  A    between atoms: _20  and  _22
REMARK    9  A    between atoms: _22  and  _23
REMARK   10  A    between atoms: _22  and  _25
REMARK   11  A    between atoms: _25  and  _26
REMARK   12  A    between atoms: _32  and  _34
REMARK   13  A    between atoms: _34  and  _35
REMARK   14  A    between atoms: _34  and  _37
REMARK   15  A    between atoms: _39  and  _41
REMARK   16  A    between atoms: _41  and  _42
REMARK   17  A    between atoms: _41  and  _44
REMARK   18  A    between atoms: _44  and  _45
REMARK   19  A    between atoms: _50  and  _52
REMARK   20  A    between atoms: _52  and  _53
REMARK   21  A    between atoms: _52  and  _55
REMARK   22  A    between atoms: _55  and  _56
REMARK   23  A    between atoms: _56  and  _57
REMARK   24  A    between atoms: _62  and  _64
REMARK   25  A    between atoms: _64  and  _65
REMARK   26  A    between atoms: _64  and  _67
REMARK   27  A    between atoms: _67  and  _68
REMARK   28  A    between atoms: _74  and  _76
REMARK   29  A    between atoms: _76  and  _77
REMARK   30  A    between atoms: _76  and  _79
REMARK   31  A    between atoms: _79  and  _80
REMARK   32  A    between atoms: _83  and  _85
REMARK   33  A    between atoms: _85  and  _86
REMARK   34  A    between atoms: _85  and  _88
REMARK   35  A    between atoms: _88  and  _89
REMARK   36  A    between atoms: _89  and  _90
REMARK   37  A    between atoms: _90  and  _91
REMARK   38  A    between atoms: _91  and  _92
REMARK   39  A    between atoms: _96  and  _98
REMARK   40  A    between atoms: _98  and  _99
REMARK   41  A    between atoms: _98  and  _101
REMARK   42  A    between atoms: _101  and  _102
REMARK   43  A    between atoms: _102  and  _103
REMARK   44  A    between atoms: _106  and  _108
REMARK   45  A    between atoms: _108  and  _109
REMARK   46  A    between atoms: _108  and  _111
REMARK   47  A    between atoms: _111  and  _112
REMARK   48  A    between atoms: _115  and  _117
REMARK   49  A    between atoms: _117  and  _118
REMARK   50  A    between atoms: _117  and  _120
REMARK   51  A    between atoms: _120  and  _121
REMARK   52  A    between atoms: _126  and  _127
REMARK   53  A    between atoms: _129  and  _131
REMARK   54  A    between atoms: _131  and  _132
REMARK   55  A    between atoms: _131  and  _134
REMARK   56  A    between atoms: _134  and  _135
REMARK   57  A    between atoms: _138  and  _140
REMARK   58  A    between atoms: _140  and  _141
REMARK   59  A    between atoms: _140  and  _143
REMARK   60  A    between atoms: _143  and  _144
REMARK   61  A    between atoms: _147  and  _149
REMARK   62  A    between atoms: _149  and  _150
REMARK   63  A    between atoms: _149  and  _152
REMARK   64  A    between atoms: _155  and  _157
REMARK   65  A    between atoms: _157  and  _158
REMARK   66  A    between atoms: _157  and  _160
REMARK   67  A    between atoms: _160  and  _161
REMARK   68  A    between atoms: _161  and  _162
REMARK   69  A    between atoms: _162  and  _163
REMARK   70  A    between atoms: _172  and  _174
REMARK   71  A    between atoms: _174  and  _175
REMARK   72  A    between atoms: _174  and  _177
REMARK   73  A    between atoms: _177  and  _178
REMARK   74  A    between atoms: _183  and  _185
REMARK   75  A    between atoms: _185  and  _186
REMARK   76  A    between atoms: _185  and  _188
REMARK   77  A    between atoms: _188  and  _189
REMARK   78  A    between atoms: _189  and  _190
REMARK   79  A    between atoms: _193  and  _195
REMARK   80  A    between atoms: _195  and  _196
REMARK   81  A    between atoms: _195  and  _198
REMARK   82  A    between atoms: _198  and  _199
REMARK   83  A    between atoms: _199  and  _200
REMARK   84  A    between atoms: _200  and  _201
REMARK   85  A    between atoms: _201  and  _202
REMARK   86  A    between atoms: _206  and  _208
REMARK   87  A    between atoms: _208  and  _209
REMARK   88  A    between atoms: _211  and  _213
REMARK   89  A    between atoms: _213  and  _214
REMARK   90  A    between atoms: _213  and  _216
REMARK   91  A    between atoms: _219  and  _221
REMARK   92  A    between atoms: _221  and  _222
REMARK   93  A    between atoms: _221  and  _224
REMARK   94  A    between atoms: _224  and  _225
REMARK   95  A    between atoms: _227  and  _229
REMARK   96  A    between atoms: _229  and  _230
REMARK   97  A    between atoms: _229  and  _232
REMARK   98  A    between atoms: _232  and  _233
REMARK   99  A    between atoms: _235  and  _237
REMARK  100  A    between atoms: _237  and  _238
REMARK  101  A    between atoms: _237  and  _240
REMARK  102  A    between atoms: _240  and  _241
REMARK  103  A    between atoms: _247  and  _249
REMARK  104  A    between atoms: _249  and  _250
REMARK  105  A    between atoms: _249  and  _252
REMARK  106  A    between atoms: _252  and  _253
REMARK  107  A    between atoms: _256  and  _258
REMARK  108  A    between atoms: _258  and  _259
REMARK  109  A    between atoms: _258  and  _261
REMARK  110  A    between atoms: _261  and  _262
REMARK  111  A    between atoms: _265  and  _267
REMARK  112  A    between atoms: _267  and  _268
REMARK  113  A    between atoms: _267  and  _270
REMARK  114  A    between atoms: _270  and  _271
REMARK  115  A    between atoms: _271  and  _272
REMARK  116  A    between atoms: _274  and  _276
REMARK  117  A    between atoms: _276  and  _277
REMARK  118  A    between atoms: _276  and  _279
REMARK  119  A    between atoms: _279  and  _280
REMARK  120  A    between atoms: _286  and  _288
REMARK  121  A    between atoms: _288  and  _289
REMARK  122  A    between atoms: _288  and  _291
REMARK  123  A    between atoms: _293  and  _295
REMARK  124  A    between atoms: _295  and  _296
REMARK  125  A    between atoms: _299  and  _301
REMARK  126  A    between atoms: _301  and  _302
REMARK  127  A    between atoms: _304  and  _306
REMARK  128  A    between atoms: _306  and  _307
REMARK  129  A    between atoms: _306  and  _309
REMARK  130  A    between atoms: _309  and  _310
REMARK  131  A    between atoms: _310  and  _311
REMARK  132  A    between atoms: _314  and  _316
REMARK  133  A    between atoms: _316  and  _317
REMARK  134  A    between atoms: _316  and  _319
REMARK  135  A    between atoms: _319  and  _320
REMARK  136  A    between atoms: _323  and  _325
REMARK  137  A    between atoms: _325  and  _326
REMARK  138  A    between atoms: _329  and  _331
REMARK  139  A    between atoms: _331  and  _332
REMARK  140  A    between atoms: _331  and  _334
REMARK  141  A    between atoms: _334  and  _335
REMARK  142  A    between atoms: _335  and  _458
REMARK  143  A    between atoms: _336  and  _338
REMARK  144  A    between atoms: _338  and  _339
REMARK  145  A    between atoms: _338  and  _341
REMARK  146  A    between atoms: _341  and  _342
REMARK  147  A    between atoms: _342  and  _343
REMARK  148  A    between atoms: _348  and  _350
REMARK  149  A    between atoms: _350  and  _351
REMARK  150  A    between atoms: _353  and  _355
REMARK  151  A    between atoms: _355  and  _356
REMARK  152  A    between atoms: _355  and  _358
REMARK  153  A    between atoms: _358  and  _359
REMARK  154  A    between atoms: _362  and  _364
REMARK  155  A    between atoms: _364  and  _365
REMARK  156  A    between atoms: _364  and  _367
REMARK  157  A    between atoms: _367  and  _368
REMARK  158  A    between atoms: _370  and  _372
REMARK  159  A    between atoms: _372  and  _373
REMARK  160  A    between atoms: _375  and  _377
REMARK  161  A    between atoms: _377  and  _378
REMARK  162  A    between atoms: _380  and  _382
REMARK  163  A    between atoms: _382  and  _383
REMARK  164  A    between atoms: _382  and  _385
REMARK  165  A    between atoms: _385  and  _386
REMARK  166  A    between atoms: _391  and  _393
REMARK  167  A    between atoms: _393  and  _394
REMARK  168  A    between atoms: _393  and  _396
REMARK  169  A    between atoms: _396  and  _397
REMARK  170  A    between atoms: _400  and  _402
REMARK  171  A    between atoms: _402  and  _403
REMARK  172  A    between atoms: _402  and  _405
REMARK  173  A    between atoms: _408  and  _410
REMARK  174  A    between atoms: _410  and  _411
REMARK  175  A    between atoms: _410  and  _413
REMARK  176  A    between atoms: _413  and  _414
REMARK  177  A    between atoms: _416  and  _418
REMARK  178  A    between atoms: _418  and  _419
REMARK  179  A    between atoms: _418  and  _421
REMARK  180  A    between atoms: _421  and  _422
REMARK  181  A    between atoms: _432  and  _434
REMARK  182  A    between atoms: _434  and  _435
REMARK  183  A    between atoms: _437  and  _439
REMARK  184  A    between atoms: _439  and  _440
REMARK  185  A    between atoms: _439  and  _442
REMARK  186  A    between atoms: _442  and  _443
REMARK  187  A    between atoms: _443  and  _444
REMARK  188  A    between atoms: _447  and  _449
REMARK  189  A    between atoms: _449  and  _450
REMARK  190  A    between atoms: _452  and  _454
REMARK  191  A    between atoms: _454  and  _455
REMARK  192  A    between atoms: _454  and  _457
REMARK  193  A    between atoms: _457  and  _458
REMARK  194  A    between atoms: _459  and  _461
REMARK  195  A    between atoms: _461  and  _462
REMARK  196  A    between atoms: _465  and  _467
REMARK  197  A    between atoms: _467  and  _468
REMARK  198  A    between atoms: _467  and  _470
REMARK  199  A    between atoms: _470  and  _471
REMARK  200  A    between atoms: _471  and  _472
REMARK  201  A    between atoms: _472  and  _473
REMARK  202  A    between atoms: _482  and  _484
REMARK  203  A    between atoms: _484  and  _485
REMARK  204  A    between atoms: _484  and  _487
REMARK  205  A    between atoms: _487  and  _488
REMARK  206  A    between atoms: _488  and  _489
REMARK  207  A    between atoms: _489  and  _490
REMARK  208  A    between atoms: _490  and  _491
REMARK  209  A    between atoms: _495  and  _497
REMARK  210  A    between atoms: _497  and  _498
REMARK  211  A    between atoms: _497  and  _500
REMARK  212  A    between atoms: _500  and  _501
REMARK  213  A    between atoms: _506  and  _507
REMARK  214  A    between atoms: _509  and  _511
REMARK  215  A    between atoms: _511  and  _512
REMARK  216  A    between atoms: _514  and  _516
REMARK  217  A    between atoms: _516  and  _517
REMARK  218  A    between atoms: _516  and  _519
REMARK  219  A    between atoms: _519  and  _520
REMARK  220  A    between atoms: _523  and  _525
REMARK  221  A    between atoms: _525  and  _526
REMARK  222  A    between atoms: _525  and  _528
REMARK  223  A    between atoms: _528  and  _529
REMARK  224  A    between atoms: _534  and  _535
REMARK  225  A    between atoms: _537  and  _539
REMARK  226  A    between atoms: _539  and  _540
REMARK  227  A    between atoms: _539  and  _542
REMARK  228  A    between atoms: _542  and  _543
REMARK                            x       y       z     vdW  Elec       q    Type
REMARK                         _______ _______ _______ _____ _____    ______ ____
ROOT
ATOM      1  O   HOH     1      -9.122   3.630  24.922  0.00  0.00    +0.000 OA
ENDROOT
TORSDOF 0
REMARK  Name = ../refined-set-2016/2y5f/2y5f_pocket.pdb
REMARK  228 active torsions:
REMARK  status: ('A' for Active; 'I' for Inactive)
REMARK    1  A    between atoms: _1  and  _5
REMARK    2  A    between atoms: _5  and  _6
REMARK    3  A    between atoms: _5  and  _8
REMARK    4  A    between atoms: _8  and  _9
REMARK    5  A    between atoms: _12  and  _14
REMARK    6  A    between atoms: _14  and  _15
REMARK    7  A    between atoms: _14  and  _17
REMARK    8  A    between atoms: _20  and  _22
REMARK    9  A    between atoms: _22  and  _23
REMARK   10  A    between atoms: _22  and  _25
REMARK   11  A    between atoms: _25  and  _26
REMARK   12  A    between atoms: _32  and  _34
REMARK   13  A    between atoms: _34  and  _35
REMARK   14  A    between atoms: _34  and  _37
REMARK   15  A    between atoms: _39  and  _41
REMARK   16  A    between atoms: _41  and  _42
REMARK   17  A    between atoms: _41  and  _44
REMARK   18  A    between atoms: _44  and  _45
REMARK   19  A    between atoms: _50  and  _52
REMARK   20  A    between atoms: _52  and  _53
REMARK   21  A    between atoms: _52  and  _55
REMARK   22  A    between atoms: _55  and  _56
REMARK   23  A    between atoms: _56  and  _57
REMARK   24  A    between atoms: _62  and  _64
REMARK   25  A    between atoms: _64  and  _65
REMARK   26  A    between atoms: _64  and  _67
REMARK   27  A    between atoms: _67  and  _68
REMARK   28  A    between atoms: _74  and  _76
REMARK   29  A    between atoms: _76  and  _77
REMARK   30  A    between atoms: _76  and  _79
REMARK   31  A    between atoms: _79  and  _80
REMARK   32  A    between atoms: _83  and  _85
REMARK   33  A    between atoms: _85  and  _86
REMARK   34  A    between atoms: _85  and  _88
REMARK   35  A    between atoms: _88  and  _89
REMARK   36  A    between atoms: _89  and  _90
REMARK   37  A    between atoms: _90  and  _91
REMARK   38  A    between atoms: _91  and  _92
REMARK   39  A    between atoms: _96  and  _98
REMARK   40  A    between atoms: _98  and  _99
REMARK   41  A    between atoms: _98  and  _101
REMARK   42  A    between atoms: _101  and  _102
REMARK   43  A    between atoms: _102  and  _103
REMARK   44  A    between atoms: _106  and  _108
REMARK   45  A    between atoms: _108  and  _109
REMARK   46  A    between atoms: _108  and  _111
REMARK   47  A    between atoms: _111  and  _112
REMARK   48  A    between atoms: _115  and  _117
REMARK   49  A    between atoms: _117  and  _118
REMARK   50  A    between atoms: _117  and  _120
REMARK   51  A    between atoms: _120  and  _121
REMARK   52  A    between atoms: _126  and  _127
REMARK   53  A    between atoms: _129  and  _131
REMARK   54  A    between atoms: _131  and  _132
REMARK   55  A    between atoms: _131  and  _134
REMARK   56  A    between atoms: _134  and  _135
REMARK   57  A    between atoms: _138  and  _140
REMARK   58  A    between atoms: _140  and  _141
REMARK   59  A    between atoms: _140  and  _143
REMARK   60  A    between atoms: _143  and  _144
REMARK   61  A    between atoms: _147  and  _149
REMARK   62  A    between atoms: _149  and  _150
REMARK   63  A    between atoms: _149  and  _152
REMARK   64  A    between atoms: _155  and  _157
REMARK   65  A    between atoms: _157  and  _158
REMARK   66  A    between atoms: _157  and  _160
REMARK   67  A    between atoms: _160  and  _161
REMARK   68  A    between atoms: _161  and  _162
REMARK   69  A    between atoms: _162  and  _163
REMARK   70  A    between atoms: _172  and  _174
REMARK   71  A    between atoms: _174  and  _175
REMARK   72  A    between atoms: _174  and  _177
REMARK   73  A    between atoms: _177  and  _178
REMARK   74  A    between atoms: _183  and  _185
REMARK   75  A    between atoms: _185  and  _186
REMARK   76  A    between atoms: _185  and  _188
REMARK   77  A    between atoms: _188  and  _189
REMARK   78  A    between atoms: _189  and  _190
REMARK   79  A    between atoms: _193  and  _195
REMARK   80  A    between atoms: _195  and  _196
REMARK   81  A    between atoms: _195  and  _198
REMARK   82  A    between atoms: _198  and  _199
REMARK   83  A    between atoms: _199  and  _200
REMARK   84  A    between atoms: _200  and  _201
REMARK   85  A    between atoms: _201  and  _202
REMARK   86  A    between atoms: _206  and  _208
REMARK   87  A    between atoms: _208  and  _209
REMARK   88  A    between atoms: _211  and  _213
REMARK   89  A    between atoms: _213  and  _214
REMARK   90  A    between atoms: _213  and  _216
REMARK   91  A    between atoms: _219  and  _221
REMARK   92  A    between atoms: _221  and  _222
REMARK   93  A    between atoms: _221  and  _224
REMARK   94  A    between atoms: _224  and  _225
REMARK   95  A    between atoms: _227  and  _229
REMARK   96  A    between atoms: _229  and  _230
REMARK   97  A    between atoms: _229  and  _232
REMARK   98  A    between atoms: _232  and  _233
REMARK   99  A    between atoms: _235  and  _237
REMARK  100  A    between atoms: _237  and  _238
REMARK  101  A    between atoms: _237  and  _240
REMARK  102  A    between atoms: _240  and  _241
REMARK  103  A    between atoms: _247  and  _249
REMARK  104  A    between atoms: _249  and  _250
REMARK  105  A    between atoms: _249  and  _252
REMARK  106  A    between atoms: _252  and  _253
REMARK  107  A    between atoms: _256  and  _258
REMARK  108  A    between atoms: _258  and  _259
REMARK  109  A    between atoms: _258  and  _261
REMARK  110  A    between atoms: _261  and  _262
REMARK  111  A    between atoms: _265  and  _267
REMARK  112  A    between atoms: _267  and  _268
REMARK  113  A    between atoms: _267  and  _270
REMARK  114  A    between atoms: _270  and  _271
REMARK  115  A    between atoms: _271  and  _272
REMARK  116  A    between atoms: _274  and  _276
REMARK  117  A    between atoms: _276  and  _277
REMARK  118  A    between atoms: _276  and  _279
REMARK  119  A    between atoms: _279  and  _280
REMARK  120  A    between atoms: _286  and  _288
REMARK  121  A    between atoms: _288  and  _289
REMARK  122  A    between atoms: _288  and  _291
REMARK  123  A    between atoms: _293  and  _295
REMARK  124  A    between atoms: _295  and  _296
REMARK  125  A    between atoms: _299  and  _301
REMARK  126  A    between atoms: _301  and  _302
REMARK  127  A    between atoms: _304  and  _306
REMARK  128  A    between atoms: _306  and  _307
REMARK  129  A    between atoms: _306  and  _309
REMARK  130  A    between atoms: _309  and  _310
REMARK  131  A    between atoms: _310  and  _311
REMARK  132  A    between atoms: _314  and  _316
REMARK  133  A    between atoms: _316  and  _317
REMARK  134  A    between atoms: _316  and  _319
REMARK  135  A    between atoms: _319  and  _320
REMARK  136  A    between atoms: _323  and  _325
REMARK  137  A    between atoms: _325  and  _326
REMARK  138  A    between atoms: _329  and  _331
REMARK  139  A    between atoms: _331  and  _332
REMARK  140  A    between atoms: _331  and  _334
REMARK  141  A    between atoms: _334  and  _335
REMARK  142  A    between atoms: _335  and  _458
REMARK  143  A    between atoms: _336  and  _338
REMARK  144  A    between atoms: _338  and  _339
REMARK  145  A    between atoms: _338  and  _341
REMARK  146  A    between atoms: _341  and  _342
REMARK  147  A    between atoms: _342  and  _343
REMARK  148  A    between atoms: _348  and  _350
REMARK  149  A    between atoms: _350  and  _351
REMARK  150  A    between atoms: _353  and  _355
REMARK  151  A    between atoms: _355  and  _356
REMARK  152  A    between atoms: _355  and  _358
REMARK  153  A    between atoms: _358  and  _359
REMARK  154  A    between atoms: _362  and  _364
REMARK  155  A    between atoms: _364  and  _365
REMARK  156  A    between atoms: _364  and  _367
REMARK  157  A    between atoms: _367  and  _368
REMARK  158  A    between atoms: _370  and  _372
REMARK  159  A    between atoms: _372  and  _373
REMARK  160  A    between atoms: _375  and  _377
REMARK  161  A    between atoms: _377  and  _378
REMARK  162  A    between atoms: _380  and  _382
REMARK  163  A    between atoms: _382  and  _383
REMARK  164  A    between atoms: _382  and  _385
REMARK  165  A    between atoms: _385  and  _386
REMARK  166  A    between atoms: _391  and  _393
REMARK  167  A    between atoms: _393  and  _394
REMARK  168  A    between atoms: _393  and  _396
REMARK  169  A    between atoms: _396  and  _397
REMARK  170  A    between atoms: _400  and  _402
REMARK  171  A    between atoms: _402  and  _403
REMARK  172  A    between atoms: _402  and  _405
REMARK  173  A    between atoms: _408  and  _410
REMARK  174  A    between atoms: _410  and  _411
REMARK  175  A    between atoms: _410  and  _413
REMARK  176  A    between atoms: _413  and  _414
REMARK  177  A    between atoms: _416  and  _418
REMARK  178  A    between atoms: _418  and  _419
REMARK  179  A    between atoms: _418  and  _421
REMARK  180  A    between atoms: _421  and  _422
REMARK  181  A    between atoms: _432  and  _434
REMARK  182  A    between atoms: _434  and  _435
REMARK  183  A    between atoms: _437  and  _439
REMARK  184  A    between atoms: _439  and  _440
REMARK  185  A    between atoms: _439  and  _442
REMARK  186  A    between atoms: _442  and  _443
REMARK  187  A    between atoms: _443  and  _444
REMARK  188  A    between atoms: _447  and  _449
REMARK  189  A    between atoms: _449  and  _450
REMARK  190  A    between atoms: _452  and  _454
REMARK  191  A    between atoms: _454  and  _455
REMARK  192  A    between atoms: _454  and  _457
REMARK  193  A    between atoms: _457  and  _458
REMARK  194  A    between atoms: _459  and  _461
REMARK  195  A    between atoms: _461  and  _462
REMARK  196  A    between atoms: _465  and  _467
REMARK  197  A    between atoms: _467  and  _468
REMARK  198  A    between atoms: _467  and  _470
REMARK  199  A    between atoms: _470  and  _471
REMARK  200  A    between atoms: _471  and  _472
REMARK  201  A    between atoms: _472  and  _473
REMARK  202  A    between atoms: _482  and  _484
REMARK  203  A    between atoms: _484  and  _485
REMARK  204  A    between atoms: _484  and  _487
REMARK  205  A    between atoms: _487  and  _488
REMARK  206  A    between atoms: _488  and  _489
REMARK  207  A    between atoms: _489  and  _490
REMARK  208  A    between atoms: _490  and  _491
REMARK  209  A    between atoms: _495  and  _497
REMARK  210  A    between atoms: _497  and  _498
REMARK  211  A    between atoms: _497  and  _500
REMARK  212  A    between atoms: _500  and  _501
REMARK  213  A    between atoms: _506  and  _507
REMARK  214  A    between atoms: _509  and  _511
REMARK  215  A    between atoms: _511  and  _512
REMARK  216  A    between atoms: _514  and  _516
REMARK  217  A    between atoms: _516  and  _517
REMARK  218  A    between atoms: _516  and  _519
REMARK  219  A    between atoms: _519  and  _520
REMARK  220  A    between atoms: _523  and  _525
REMARK  221  A    between atoms: _525  and  _526
REMARK  222  A    between atoms: _525  and  _528
REMARK  223  A    between atoms: _528  and  _529
REMARK  224  A    between atoms: _534  and  _535
REMARK  225  A    between atoms: _537  and  _539
REMARK  226  A    between atoms: _539  and  _540
REMARK  227  A    between atoms: _539  and  _542
REMARK  228  A    between atoms: _542  and  _543
REMARK                            x       y       z     vdW  Elec       q    Type
REMARK                         _______ _______ _______ _____ _____    ______ ____
ROOT
ATOM      1  O   HOH     1     -12.267   9.327  22.385  0.00  0.00    +0.000 OA
ENDROOT
TORSDOF 0
REMARK  Name = ../refined-set-2016/2y5f/2y5f_pocket.pdb
REMARK  228 active torsions:
REMARK  status: ('A' for Active; 'I' for Inactive)
REMARK    1  A    between atoms: _1  and  _5
REMARK    2  A    between atoms: _5  and  _6
REMARK    3  A    between atoms: _5  and  _8
REMARK    4  A    between atoms: _8  and  _9
REMARK    5  A    between atoms: _12  and  _14
REMARK    6  A    between atoms: _14  and  _15
REMARK    7  A    between atoms: _14  and  _17
REMARK    8  A    between atoms: _20  and  _22
REMARK    9  A    between atoms: _22  and  _23
REMARK   10  A    between atoms: _22  and  _25
REMARK   11  A    between atoms: _25  and  _26
REMARK   12  A    between atoms: _32  and  _34
REMARK   13  A    between atoms: _34  and  _35
REMARK   14  A    between atoms: _34  and  _37
REMARK   15  A    between atoms: _39  and  _41
REMARK   16  A    between atoms: _41  and  _42
REMARK   17  A    between atoms: _41  and  _44
REMARK   18  A    between atoms: _44  and  _45
REMARK   19  A    between atoms: _50  and  _52
REMARK   20  A    between atoms: _52  and  _53
REMARK   21  A    between atoms: _52  and  _55
REMARK   22  A    between atoms: _55  and  _56
REMARK   23  A    between atoms: _56  and  _57
REMARK   24  A    between atoms: _62  and  _64
REMARK   25  A    between atoms: _64  and  _65
REMARK   26  A    between atoms: _64  and  _67
REMARK   27  A    between atoms: _67  and  _68
REMARK   28  A    between atoms: _74  and  _76
REMARK   29  A    between atoms: _76  and  _77
REMARK   30  A    between atoms: _76  and  _79
REMARK   31  A    between atoms: _79  and  _80
REMARK   32  A    between atoms: _83  and  _85
REMARK   33  A    between atoms: _85  and  _86
REMARK   34  A    between atoms: _85  and  _88
REMARK   35  A    between atoms: _88  and  _89
REMARK   36  A    between atoms: _89  and  _90
REMARK   37  A    between atoms: _90  and  _91
REMARK   38  A    between atoms: _91  and  _92
REMARK   39  A    between atoms: _96  and  _98
REMARK   40  A    between atoms: _98  and  _99
REMARK   41  A    between atoms: _98  and  _101
REMARK   42  A    between atoms: _101  and  _102
REMARK   43  A    between atoms: _102  and  _103
REMARK   44  A    between atoms: _106  and  _108
REMARK   45  A    between atoms: _108  and  _109
REMARK   46  A    between atoms: _108  and  _111
REMARK   47  A    between atoms: _111  and  _112
REMARK   48  A    between atoms: _115  and  _117
REMARK   49  A    between atoms: _117  and  _118
REMARK   50  A    between atoms: _117  and  _120
REMARK   51  A    between atoms: _120  and  _121
REMARK   52  A    between atoms: _126  and  _127
REMARK   53  A    between atoms: _129  and  _131
REMARK   54  A    between atoms: _131  and  _132
REMARK   55  A    between atoms: _131  and  _134
REMARK   56  A    between atoms: _134  and  _135
REMARK   57  A    between atoms: _138  and  _140
REMARK   58  A    between atoms: _140  and  _141
REMARK   59  A    between atoms: _140  and  _143
REMARK   60  A    between atoms: _143  and  _144
REMARK   61  A    between atoms: _147  and  _149
REMARK   62  A    between atoms: _149  and  _150
REMARK   63  A    between atoms: _149  and  _152
REMARK   64  A    between atoms: _155  and  _157
REMARK   65  A    between atoms: _157  and  _158
REMARK   66  A    between atoms: _157  and  _160
REMARK   67  A    between atoms: _160  and  _161
REMARK   68  A    between atoms: _161  and  _162
REMARK   69  A    between atoms: _162  and  _163
REMARK   70  A    between atoms: _172  and  _174
REMARK   71  A    between atoms: _174  and  _175
REMARK   72  A    between atoms: _174  and  _177
REMARK   73  A    between atoms: _177  and  _178
REMARK   74  A    between atoms: _183  and  _185
REMARK   75  A    between atoms: _185  and  _186
REMARK   76  A    between atoms: _185  and  _188
REMARK   77  A    between atoms: _188  and  _189
REMARK   78  A    between atoms: _189  and  _190
REMARK   79  A    between atoms: _193  and  _195
REMARK   80  A    between atoms: _195  and  _196
REMARK   81  A    between atoms: _195  and  _198
REMARK   82  A    between atoms: _198  and  _199
REMARK   83  A    between atoms: _199  and  _200
REMARK   84  A    between atoms: _200  and  _201
REMARK   85  A    between atoms: _201  and  _202
REMARK   86  A    between atoms: _206  and  _208
REMARK   87  A    between atoms: _208  and  _209
REMARK   88  A    between atoms: _211  and  _213
REMARK   89  A    between atoms: _213  and  _214
REMARK   90  A    between atoms: _213  and  _216
REMARK   91  A    between atoms: _219  and  _221
REMARK   92  A    between atoms: _221  and  _222
REMARK   93  A    between atoms: _221  and  _224
REMARK   94  A    between atoms: _224  and  _225
REMARK   95  A    between atoms: _227  and  _229
REMARK   96  A    between atoms: _229  and  _230
REMARK   97  A    between atoms: _229  and  _232
REMARK   98  A    between atoms: _232  and  _233
REMARK   99  A    between atoms: _235  and  _237
REMARK  100  A    between atoms: _237  and  _238
REMARK  101  A    between atoms: _237  and  _240
REMARK  102  A    between atoms: _240  and  _241
REMARK  103  A    between atoms: _247  and  _249
REMARK  104  A    between atoms: _249  and  _250
REMARK  105  A    between atoms: _249  and  _252
REMARK  106  A    between atoms: _252  and  _253
REMARK  107  A    between atoms: _256  and  _258
REMARK  108  A    between atoms: _258  and  _259
REMARK  109  A    between atoms: _258  and  _261
REMARK  110  A    between atoms: _261  and  _262
REMARK  111  A    between atoms: _265  and  _267
REMARK  112  A    between atoms: _267  and  _268
REMARK  113  A    between atoms: _267  and  _270
REMARK  114  A    between atoms: _270  and  _271
REMARK  115  A    between atoms: _271  and  _272
REMARK  116  A    between atoms: _274  and  _276
REMARK  117  A    between atoms: _276  and  _277
REMARK  118  A    between atoms: _276  and  _279
REMARK  119  A    between atoms: _279  and  _280
REMARK  120  A    between atoms: _286  and  _288
REMARK  121  A    between atoms: _288  and  _289
REMARK  122  A    between atoms: _288  and  _291
REMARK  123  A    between atoms: _293  and  _295
REMARK  124  A    between atoms: _295  and  _296
REMARK  125  A    between atoms: _299  and  _301
REMARK  126  A    between atoms: _301  and  _302
REMARK  127  A    between atoms: _304  and  _306
REMARK  128  A    between atoms: _306  and  _307
REMARK  129  A    between atoms: _306  and  _309
REMARK  130  A    between atoms: _309  and  _310
REMARK  131  A    between atoms: _310  and  _311
REMARK  132  A    between atoms: _314  and  _316
REMARK  133  A    between atoms: _316  and  _317
REMARK  134  A    between atoms: _316  and  _319
REMARK  135  A    between atoms: _319  and  _320
REMARK  136  A    between atoms: _323  and  _325
REMARK  137  A    between atoms: _325  and  _326
REMARK  138  A    between atoms: _329  and  _331
REMARK  139  A    between atoms: _331  and  _332
REMARK  140  A    between atoms: _331  and  _334
REMARK  141  A    between atoms: _334  and  _335
REMARK  142  A    between atoms: _335  and  _458
REMARK  143  A    between atoms: _336  and  _338
REMARK  144  A    between atoms: _338  and  _339
REMARK  145  A    between atoms: _338  and  _341
REMARK  146  A    between atoms: _341  and  _342
REMARK  147  A    between atoms: _342  and  _343
REMARK  148  A    between atoms: _348  and  _350
REMARK  149  A    between atoms: _350  and  _351
REMARK  150  A    between atoms: _353  and  _355
REMARK  151  A    between atoms: _355  and  _356
REMARK  152  A    between atoms: _355  and  _358
REMARK  153  A    between atoms: _358  and  _359
REMARK  154  A    between atoms: _362  and  _364
REMARK  155  A    between atoms: _364  and  _365
REMARK  156  A    between atoms: _364  and  _367
REMARK  157  A    between atoms: _367  and  _368
REMARK  158  A    between atoms: _370  and  _372
REMARK  159  A    between atoms: _372  and  _373
REMARK  160  A    between atoms: _375  and  _377
REMARK  161  A    between atoms: _377  and  _378
REMARK  162  A    between atoms: _380  and  _382
REMARK  163  A    between atoms: _382  and  _383
REMARK  164  A    between atoms: _382  and  _385
REMARK  165  A    between atoms: _385  and  _386
REMARK  166  A    between atoms: _391  and  _393
REMARK  167  A    between atoms: _393  and  _394
REMARK  168  A    between atoms: _393  and  _396
REMARK  169  A    between atoms: _396  and  _397
REMARK  170  A    between atoms: _400  and  _402
REMARK  171  A    between atoms: _402  and  _403
REMARK  172  A    between atoms: _402  and  _405
REMARK  173  A    between atoms: _408  and  _410
REMARK  174  A    between atoms: _410  and  _411
REMARK  175  A    between atoms: _410  and  _413
REMARK  176  A    between atoms: _413  and  _414
REMARK  177  A    between atoms: _416  and  _418
REMARK  178  A    between atoms: _418  and  _419
REMARK  179  A    between atoms: _418  and  _421
REMARK  180  A    between atoms: _421  and  _422
REMARK  181  A    between atoms: _432  and  _434
REMARK  182  A    between atoms: _434  and  _435
REMARK  183  A    between atoms: _437  and  _439
REMARK  184  A    between atoms: _439  and  _440
REMARK  185  A    between atoms: _439  and  _442
REMARK  186  A    between atoms: _442  and  _443
REMARK  187  A    between atoms: _443  and  _444
REMARK  188  A    between atoms: _447  and  _449
REMARK  189  A    between atoms: _449  and  _450
REMARK  190  A    between atoms: _452  and  _454
REMARK  191  A    between atoms: _454  and  _455
REMARK  192  A    between atoms: _454  and  _457
REMARK  193  A    between atoms: _457  and  _458
REMARK  194  A    between atoms: _459  and  _461
REMARK  195  A    between atoms: _461  and  _462
REMARK  196  A    between atoms: _465  and  _467
REMARK  197  A    between atoms: _467  and  _468
REMARK  198  A    between atoms: _467  and  _470
REMARK  199  A    between atoms: _470  and  _471
REMARK  200  A    between atoms: _471  and  _472
REMARK  201  A    between atoms: _472  and  _473
REMARK  202  A    between atoms: _482  and  _484
REMARK  203  A    between atoms: _484  and  _485
REMARK  204  A    between atoms: _484  and  _487
REMARK  205  A    between atoms: _487  and  _488
REMARK  206  A    between atoms: _488  and  _489
REMARK  207  A    between atoms: _489  and  _490
REMARK  208  A    between atoms: _490  and  _491
REMARK  209  A    between atoms: _495  and  _497
REMARK  210  A    between atoms: _497  and  _498
REMARK  211  A    between atoms: _497  and  _500
REMARK  212  A    between atoms: _500  and  _501
REMARK  213  A    between atoms: _506  and  _507
REMARK  214  A    between atoms: _509  and  _511
REMARK  215  A    between atoms: _511  and  _512
REMARK  216  A    between atoms: _514  and  _516
REMARK  217  A    between atoms: _516  and  _517
REMARK  218  A    between atoms: _516  and  _519
REMARK  219  A    between atoms: _519  and  _520
REMARK  220  A    between atoms: _523  and  _525
REMARK  221  A    between atoms: _525  and  _526
REMARK  222  A    between atoms: _525  and  _528
REMARK  223  A    between atoms: _528  and  _529
REMARK  224  A    between atoms: _534  and  _535
REMARK  225  A    between atoms: _537  and  _539
REMARK  226  A    between atoms: _539  and  _540
REMARK  227  A    between atoms: _539  and  _542
REMARK  228  A    between atoms: _542  and  _543
REMARK                            x       y       z     vdW  Elec       q    Type
REMARK                         _______ _______ _______ _____ _____    ______ ____
ROOT
ATOM      1  O   HOH     1      -7.793   8.707  29.940  0.00  0.00    +0.000 OA
ENDROOT
TORSDOF 0
REMARK  Name = ../refined-set-2016/2y5f/2y5f_pocket.pdb
REMARK  228 active torsions:
REMARK  status: ('A' for Active; 'I' for Inactive)
REMARK    1  A    between atoms: _1  and  _5
REMARK    2  A    between atoms: _5  and  _6
REMARK    3  A    between atoms: _5  and  _8
REMARK    4  A    between atoms: _8  and  _9
REMARK    5  A    between atoms: _12  and  _14
REMARK    6  A    between atoms: _14  and  _15
REMARK    7  A    between atoms: _14  and  _17
REMARK    8  A    between atoms: _20  and  _22
REMARK    9  A    between atoms: _22  and  _23
REMARK   10  A    between atoms: _22  and  _25
REMARK   11  A    between atoms: _25  and  _26
REMARK   12  A    between atoms: _32  and  _34
REMARK   13  A    between atoms: _34  and  _35
REMARK   14  A    between atoms: _34  and  _37
REMARK   15  A    between atoms: _39  and  _41
REMARK   16  A    between atoms: _41  and  _42
REMARK   17  A    between atoms: _41  and  _44
REMARK   18  A    between atoms: _44  and  _45
REMARK   19  A    between atoms: _50  and  _52
REMARK   20  A    between atoms: _52  and  _53
REMARK   21  A    between atoms: _52  and  _55
REMARK   22  A    between atoms: _55  and  _56
REMARK   23  A    between atoms: _56  and  _57
REMARK   24  A    between atoms: _62  and  _64
REMARK   25  A    between atoms: _64  and  _65
REMARK   26  A    between atoms: _64  and  _67
REMARK   27  A    between atoms: _67  and  _68
REMARK   28  A    between atoms: _74  and  _76
REMARK   29  A    between atoms: _76  and  _77
REMARK   30  A    between atoms: _76  and  _79
REMARK   31  A    between atoms: _79  and  _80
REMARK   32  A    between atoms: _83  and  _85
REMARK   33  A    between atoms: _85  and  _86
REMARK   34  A    between atoms: _85  and  _88
REMARK   35  A    between atoms: _88  and  _89
REMARK   36  A    between atoms: _89  and  _90
REMARK   37  A    between atoms: _90  and  _91
REMARK   38  A    between atoms: _91  and  _92
REMARK   39  A    between atoms: _96  and  _98
REMARK   40  A    between atoms: _98  and  _99
REMARK   41  A    between atoms: _98  and  _101
REMARK   42  A    between atoms: _101  and  _102
REMARK   43  A    between atoms: _102  and  _103
REMARK   44  A    between atoms: _106  and  _108
REMARK   45  A    between atoms: _108  and  _109
REMARK   46  A    between atoms: _108  and  _111
REMARK   47  A    between atoms: _111  and  _112
REMARK   48  A    between atoms: _115  and  _117
REMARK   49  A    between atoms: _117  and  _118
REMARK   50  A    between atoms: _117  and  _120
REMARK   51  A    between atoms: _120  and  _121
REMARK   52  A    between atoms: _126  and  _127
REMARK   53  A    between atoms: _129  and  _131
REMARK   54  A    between atoms: _131  and  _132
REMARK   55  A    between atoms: _131  and  _134
REMARK   56  A    between atoms: _134  and  _135
REMARK   57  A    between atoms: _138  and  _140
REMARK   58  A    between atoms: _140  and  _141
REMARK   59  A    between atoms: _140  and  _143
REMARK   60  A    between atoms: _143  and  _144
REMARK   61  A    between atoms: _147  and  _149
REMARK   62  A    between atoms: _149  and  _150
REMARK   63  A    between atoms: _149  and  _152
REMARK   64  A    between atoms: _155  and  _157
REMARK   65  A    between atoms: _157  and  _158
REMARK   66  A    between atoms: _157  and  _160
REMARK   67  A    between atoms: _160  and  _161
REMARK   68  A    between atoms: _161  and  _162
REMARK   69  A    between atoms: _162  and  _163
REMARK   70  A    between atoms: _172  and  _174
REMARK   71  A    between atoms: _174  and  _175
REMARK   72  A    between atoms: _174  and  _177
REMARK   73  A    between atoms: _177  and  _178
REMARK   74  A    between atoms: _183  and  _185
REMARK   75  A    between atoms: _185  and  _186
REMARK   76  A    between atoms: _185  and  _188
REMARK   77  A    between atoms: _188  and  _189
REMARK   78  A    between atoms: _189  and  _190
REMARK   79  A    between atoms: _193  and  _195
REMARK   80  A    between atoms: _195  and  _196
REMARK   81  A    between atoms: _195  and  _198
REMARK   82  A    between atoms: _198  and  _199
REMARK   83  A    between atoms: _199  and  _200
REMARK   84  A    between atoms: _200  and  _201
REMARK   85  A    between atoms: _201  and  _202
REMARK   86  A    between atoms: _206  and  _208
REMARK   87  A    between atoms: _208  and  _209
REMARK   88  A    between atoms: _211  and  _213
REMARK   89  A    between atoms: _213  and  _214
REMARK   90  A    between atoms: _213  and  _216
REMARK   91  A    between atoms: _219  and  _221
REMARK   92  A    between atoms: _221  and  _222
REMARK   93  A    between atoms: _221  and  _224
REMARK   94  A    between atoms: _224  and  _225
REMARK   95  A    between atoms: _227  and  _229
REMARK   96  A    between atoms: _229  and  _230
REMARK   97  A    between atoms: _229  and  _232
REMARK   98  A    between atoms: _232  and  _233
REMARK   99  A    between atoms: _235  and  _237
REMARK  100  A    between atoms: _237  and  _238
REMARK  101  A    between atoms: _237  and  _240
REMARK  102  A    between atoms: _240  and  _241
REMARK  103  A    between atoms: _247  and  _249
REMARK  104  A    between atoms: _249  and  _250
REMARK  105  A    between atoms: _249  and  _252
REMARK  106  A    between atoms: _252  and  _253
REMARK  107  A    between atoms: _256  and  _258
REMARK  108  A    between atoms: _258  and  _259
REMARK  109  A    between atoms: _258  and  _261
REMARK  110  A    between atoms: _261  and  _262
REMARK  111  A    between atoms: _265  and  _267
REMARK  112  A    between atoms: _267  and  _268
REMARK  113  A    between atoms: _267  and  _270
REMARK  114  A    between atoms: _270  and  _271
REMARK  115  A    between atoms: _271  and  _272
REMARK  116  A    between atoms: _274  and  _276
REMARK  117  A    between atoms: _276  and  _277
REMARK  118  A    between atoms: _276  and  _279
REMARK  119  A    between atoms: _279  and  _280
REMARK  120  A    between atoms: _286  and  _288
REMARK  121  A    between atoms: _288  and  _289
REMARK  122  A    between atoms: _288  and  _291
REMARK  123  A    between atoms: _293  and  _295
REMARK  124  A    between atoms: _295  and  _296
REMARK  125  A    between atoms: _299  and  _301
REMARK  126  A    between atoms: _301  and  _302
REMARK  127  A    between atoms: _304  and  _306
REMARK  128  A    between atoms: _306  and  _307
REMARK  129  A    between atoms: _306  and  _309
REMARK  130  A    between atoms: _309  and  _310
REMARK  131  A    between atoms: _310  and  _311
REMARK  132  A    between atoms: _314  and  _316
REMARK  133  A    between atoms: _316  and  _317
REMARK  134  A    between atoms: _316  and  _319
REMARK  135  A    between atoms: _319  and  _320
REMARK  136  A    between atoms: _323  and  _325
REMARK  137  A    between atoms: _325  and  _326
REMARK  138  A    between atoms: _329  and  _331
REMARK  139  A    between atoms: _331  and  _332
REMARK  140  A    between atoms: _331  and  _334
REMARK  141  A    between atoms: _334  and  _335
REMARK  142  A    between atoms: _335  and  _458
REMARK  143  A    between atoms: _336  and  _338
REMARK  144  A    between atoms: _338  and  _339
REMARK  145  A    between atoms: _338  and  _341
REMARK  146  A    between atoms: _341  and  _342
REMARK  147  A    between atoms: _342  and  _343
REMARK  148  A    between atoms: _348  and  _350
REMARK  149  A    between atoms: _350  and  _351
REMARK  150  A    between atoms: _353  and  _355
REMARK  151  A    between atoms: _355  and  _356
REMARK  152  A    between atoms: _355  and  _358
REMARK  153  A    between atoms: _358  and  _359
REMARK  154  A    between atoms: _362  and  _364
REMARK  155  A    between atoms: _364  and  _365
REMARK  156  A    between atoms: _364  and  _367
REMARK  157  A    between atoms: _367  and  _368
REMARK  158  A    between atoms: _370  and  _372
REMARK  159  A    between atoms: _372  and  _373
REMARK  160  A    between atoms: _375  and  _377
REMARK  161  A    between atoms: _377  and  _378
REMARK  162  A    between atoms: _380  and  _382
REMARK  163  A    between atoms: _382  and  _383
REMARK  164  A    between atoms: _382  and  _385
REMARK  165  A    between atoms: _385  and  _386
REMARK  166  A    between atoms: _391  and  _393
REMARK  167  A    between atoms: _393  and  _394
REMARK  168  A    between atoms: _393  and  _396
REMARK  169  A    between atoms: _396  and  _397
REMARK  170  A    between atoms: _400  and  _402
REMARK  171  A    between atoms: _402  and  _403
REMARK  172  A    between atoms: _402  and  _405
REMARK  173  A    between atoms: _408  and  _410
REMARK  174  A    between atoms: _410  and  _411
REMARK  175  A    between atoms: _410  and  _413
REMARK  176  A    between atoms: _413  and  _414
REMARK  177  A    between atoms: _416  and  _418
REMARK  178  A    between atoms: _418  and  _419
REMARK  179  A    between atoms: _418  and  _421
REMARK  180  A    between atoms: _421  and  _422
REMARK  181  A    between atoms: _432  and  _434
REMARK  182  A    between atoms: _434  and  _435
REMARK  183  A    between atoms: _437  and  _439
REMARK  184  A    between atoms: _439  and  _440
REMARK  185  A    between atoms: _439  and  _442
REMARK  186  A    between atoms: _442  and  _443
REMARK  187  A    between atoms: _443  and  _444
REMARK  188  A    between atoms: _447  and  _449
REMARK  189  A    between atoms: _449  and  _450
REMARK  190  A    between atoms: _452  and  _454
REMARK  191  A    between atoms: _454  and  _455
REMARK  192  A    between atoms: _454  and  _457
REMARK  193  A    between atoms: _457  and  _458
REMARK  194  A    between atoms: _459  and  _461
REMARK  195  A    between atoms: _461  and  _462
REMARK  196  A    between atoms: _465  and  _467
REMARK  197  A    between atoms: _467  and  _468
REMARK  198  A    between atoms: _467  and  _470
REMARK  199  A    between atoms: _470  and  _471
REMARK  200  A    between atoms: _471  and  _472
REMARK  201  A    between atoms: _472  and  _473
REMARK  202  A    between atoms: _482  and  _484
REMARK  203  A    between atoms: _484  and  _485
REMARK  204  A    between atoms: _484  and  _487
REMARK  205  A    between atoms: _487  and  _488
REMARK  206  A    between atoms: _488  and  _489
REMARK  207  A    between atoms: _489  and  _490
REMARK  208  A    between atoms: _490  and  _491
REMARK  209  A    between atoms: _495  and  _497
REMARK  210  A    between atoms: _497  and  _498
REMARK  211  A    between atoms: _497  and  _500
REMARK  212  A    between atoms: _500  and  _501
REMARK  213  A    between atoms: _506  and  _507
REMARK  214  A    between atoms: _509  and  _511
REMARK  215  A    between atoms: _511  and  _512
REMARK  216  A    between atoms: _514  and  _516
REMARK  217  A    between atoms: _516  and  _517
REMARK  218  A    between atoms: _516  and  _519
REMARK  219  A    between atoms: _519  and  _520
REMARK  220  A    between atoms: _523  and  _525
REMARK  221  A    between atoms: _525  and  _526
REMARK  222  A    between atoms: _525  and  _528
REMARK  223  A    between atoms: _528  and  _529
REMARK  224  A    between atoms: _534  and  _535
REMARK  225  A    between atoms: _537  and  _539
REMARK  226  A    between atoms: _539  and  _540
REMARK  227  A    between atoms: _539  and  _542
REMARK  228  A    between atoms: _542  and  _543
REMARK                            x       y       z     vdW  Elec       q    Type
REMARK                         _______ _______ _______ _____ _____    ______ ____
ROOT
ATOM      1  O   HOH     1      -6.456   6.231  32.598  0.00  0.00    +0.000 OA
ENDROOT
TORSDOF 0
REMARK  Name = ../refined-set-2016/2y5f/2y5f_pocket.pdb
REMARK  228 active torsions:
REMARK  status: ('A' for Active; 'I' for Inactive)
REMARK    1  A    between atoms: _1  and  _5
REMARK    2  A    between atoms: _5  and  _6
REMARK    3  A    between atoms: _5  and  _8
REMARK    4  A    between atoms: _8  and  _9
REMARK    5  A    between atoms: _12  and  _14
REMARK    6  A    between atoms: _14  and  _15
REMARK    7  A    between atoms: _14  and  _17
REMARK    8  A    between atoms: _20  and  _22
REMARK    9  A    between atoms: _22  and  _23
REMARK   10  A    between atoms: _22  and  _25
REMARK   11  A    between atoms: _25  and  _26
REMARK   12  A    between atoms: _32  and  _34
REMARK   13  A    between atoms: _34  and  _35
REMARK   14  A    between atoms: _34  and  _37
REMARK   15  A    between atoms: _39  and  _41
REMARK   16  A    between atoms: _41  and  _42
REMARK   17  A    between atoms: _41  and  _44
REMARK   18  A    between atoms: _44  and  _45
REMARK   19  A    between atoms: _50  and  _52
REMARK   20  A    between atoms: _52  and  _53
REMARK   21  A    between atoms: _52  and  _55
REMARK   22  A    between atoms: _55  and  _56
REMARK   23  A    between atoms: _56  and  _57
REMARK   24  A    between atoms: _62  and  _64
REMARK   25  A    between atoms: _64  and  _65
REMARK   26  A    between atoms: _64  and  _67
REMARK   27  A    between atoms: _67  and  _68
REMARK   28  A    between atoms: _74  and  _76
REMARK   29  A    between atoms: _76  and  _77
REMARK   30  A    between atoms: _76  and  _79
REMARK   31  A    between atoms: _79  and  _80
REMARK   32  A    between atoms: _83  and  _85
REMARK   33  A    between atoms: _85  and  _86
REMARK   34  A    between atoms: _85  and  _88
REMARK   35  A    between atoms: _88  and  _89
REMARK   36  A    between atoms: _89  and  _90
REMARK   37  A    between atoms: _90  and  _91
REMARK   38  A    between atoms: _91  and  _92
REMARK   39  A    between atoms: _96  and  _98
REMARK   40  A    between atoms: _98  and  _99
REMARK   41  A    between atoms: _98  and  _101
REMARK   42  A    between atoms: _101  and  _102
REMARK   43  A    between atoms: _102  and  _103
REMARK   44  A    between atoms: _106  and  _108
REMARK   45  A    between atoms: _108  and  _109
REMARK   46  A    between atoms: _108  and  _111
REMARK   47  A    between atoms: _111  and  _112
REMARK   48  A    between atoms: _115  and  _117
REMARK   49  A    between atoms: _117  and  _118
REMARK   50  A    between atoms: _117  and  _120
REMARK   51  A    between atoms: _120  and  _121
REMARK   52  A    between atoms: _126  and  _127
REMARK   53  A    between atoms: _129  and  _131
REMARK   54  A    between atoms: _131  and  _132
REMARK   55  A    between atoms: _131  and  _134
REMARK   56  A    between atoms: _134  and  _135
REMARK   57  A    between atoms: _138  and  _140
REMARK   58  A    between atoms: _140  and  _141
REMARK   59  A    between atoms: _140  and  _143
REMARK   60  A    between atoms: _143  and  _144
REMARK   61  A    between atoms: _147  and  _149
REMARK   62  A    between atoms: _149  and  _150
REMARK   63  A    between atoms: _149  and  _152
REMARK   64  A    between atoms: _155  and  _157
REMARK   65  A    between atoms: _157  and  _158
REMARK   66  A    between atoms: _157  and  _160
REMARK   67  A    between atoms: _160  and  _161
REMARK   68  A    between atoms: _161  and  _162
REMARK   69  A    between atoms: _162  and  _163
REMARK   70  A    between atoms: _172  and  _174
REMARK   71  A    between atoms: _174  and  _175
REMARK   72  A    between atoms: _174  and  _177
REMARK   73  A    between atoms: _177  and  _178
REMARK   74  A    between atoms: _183  and  _185
REMARK   75  A    between atoms: _185  and  _186
REMARK   76  A    between atoms: _185  and  _188
REMARK   77  A    between atoms: _188  and  _189
REMARK   78  A    between atoms: _189  and  _190
REMARK   79  A    between atoms: _193  and  _195
REMARK   80  A    between atoms: _195  and  _196
REMARK   81  A    between atoms: _195  and  _198
REMARK   82  A    between atoms: _198  and  _199
REMARK   83  A    between atoms: _199  and  _200
REMARK   84  A    between atoms: _200  and  _201
REMARK   85  A    between atoms: _201  and  _202
REMARK   86  A    between atoms: _206  and  _208
REMARK   87  A    between atoms: _208  and  _209
REMARK   88  A    between atoms: _211  and  _213
REMARK   89  A    between atoms: _213  and  _214
REMARK   90  A    between atoms: _213  and  _216
REMARK   91  A    between atoms: _219  and  _221
REMARK   92  A    between atoms: _221  and  _222
REMARK   93  A    between atoms: _221  and  _224
REMARK   94  A    between atoms: _224  and  _225
REMARK   95  A    between atoms: _227  and  _229
REMARK   96  A    between atoms: _229  and  _230
REMARK   97  A    between atoms: _229  and  _232
REMARK   98  A    between atoms: _232  and  _233
REMARK   99  A    between atoms: _235  and  _237
REMARK  100  A    between atoms: _237  and  _238
REMARK  101  A    between atoms: _237  and  _240
REMARK  102  A    between atoms: _240  and  _241
REMARK  103  A    between atoms: _247  and  _249
REMARK  104  A    between atoms: _249  and  _250
REMARK  105  A    between atoms: _249  and  _252
REMARK  106  A    between atoms: _252  and  _253
REMARK  107  A    between atoms: _256  and  _258
REMARK  108  A    between atoms: _258  and  _259
REMARK  109  A    between atoms: _258  and  _261
REMARK  110  A    between atoms: _261  and  _262
REMARK  111  A    between atoms: _265  and  _267
REMARK  112  A    between atoms: _267  and  _268
REMARK  113  A    between atoms: _267  and  _270
REMARK  114  A    between atoms: _270  and  _271
REMARK  115  A    between atoms: _271  and  _272
REMARK  116  A    between atoms: _274  and  _276
REMARK  117  A    between atoms: _276  and  _277
REMARK  118  A    between atoms: _276  and  _279
REMARK  119  A    between atoms: _279  and  _280
REMARK  120  A    between atoms: _286  and  _288
REMARK  121  A    between atoms: _288  and  _289
REMARK  122  A    between atoms: _288  and  _291
REMARK  123  A    between atoms: _293  and  _295
REMARK  124  A    between atoms: _295  and  _296
REMARK  125  A    between atoms: _299  and  _301
REMARK  126  A    between atoms: _301  and  _302
REMARK  127  A    between atoms: _304  and  _306
REMARK  128  A    between atoms: _306  and  _307
REMARK  129  A    between atoms: _306  and  _309
REMARK  130  A    between atoms: _309  and  _310
REMARK  131  A    between atoms: _310  and  _311
REMARK  132  A    between atoms: _314  and  _316
REMARK  133  A    between atoms: _316  and  _317
REMARK  134  A    between atoms: _316  and  _319
REMARK  135  A    between atoms: _319  and  _320
REMARK  136  A    between atoms: _323  and  _325
REMARK  137  A    between atoms: _325  and  _326
REMARK  138  A    between atoms: _329  and  _331
REMARK  139  A    between atoms: _331  and  _332
REMARK  140  A    between atoms: _331  and  _334
REMARK  141  A    between atoms: _334  and  _335
REMARK  142  A    between atoms: _335  and  _458
REMARK  143  A    between atoms: _336  and  _338
REMARK  144  A    between atoms: _338  and  _339
REMARK  145  A    between atoms: _338  and  _341
REMARK  146  A    between atoms: _341  and  _342
REMARK  147  A    between atoms: _342  and  _343
REMARK  148  A    between atoms: _348  and  _350
REMARK  149  A    between atoms: _350  and  _351
REMARK  150  A    between atoms: _353  and  _355
REMARK  151  A    between atoms: _355  and  _356
REMARK  152  A    between atoms: _355  and  _358
REMARK  153  A    between atoms: _358  and  _359
REMARK  154  A    between atoms: _362  and  _364
REMARK  155  A    between atoms: _364  and  _365
REMARK  156  A    between atoms: _364  and  _367
REMARK  157  A    between atoms: _367  and  _368
REMARK  158  A    between atoms: _370  and  _372
REMARK  159  A    between atoms: _372  and  _373
REMARK  160  A    between atoms: _375  and  _377
REMARK  161  A    between atoms: _377  and  _378
REMARK  162  A    between atoms: _380  and  _382
REMARK  163  A    between atoms: _382  and  _383
REMARK  164  A    between atoms: _382  and  _385
REMARK  165  A    between atoms: _385  and  _386
REMARK  166  A    between atoms: _391  and  _393
REMARK  167  A    between atoms: _393  and  _394
REMARK  168  A    between atoms: _393  and  _396
REMARK  169  A    between atoms: _396  and  _397
REMARK  170  A    between atoms: _400  and  _402
REMARK  171  A    between atoms: _402  and  _403
REMARK  172  A    between atoms: _402  and  _405
REMARK  173  A    between atoms: _408  and  _410
REMARK  174  A    between atoms: _410  and  _411
REMARK  175  A    between atoms: _410  and  _413
REMARK  176  A    between atoms: _413  and  _414
REMARK  177  A    between atoms: _416  and  _418
REMARK  178  A    between atoms: _418  and  _419
REMARK  179  A    between atoms: _418  and  _421
REMARK  180  A    between atoms: _421  and  _422
REMARK  181  A    between atoms: _432  and  _434
REMARK  182  A    between atoms: _434  and  _435
REMARK  183  A    between atoms: _437  and  _439
REMARK  184  A    between atoms: _439  and  _440
REMARK  185  A    between atoms: _439  and  _442
REMARK  186  A    between atoms: _442  and  _443
REMARK  187  A    between atoms: _443  and  _444
REMARK  188  A    between atoms: _447  and  _449
REMARK  189  A    between atoms: _449  and  _450
REMARK  190  A    between atoms: _452  and  _454
REMARK  191  A    between atoms: _454  and  _455
REMARK  192  A    between atoms: _454  and  _457
REMARK  193  A    between atoms: _457  and  _458
REMARK  194  A    between atoms: _459  and  _461
REMARK  195  A    between atoms: _461  and  _462
REMARK  196  A    between atoms: _465  and  _467
REMARK  197  A    between atoms: _467  and  _468
REMARK  198  A    between atoms: _467  and  _470
REMARK  199  A    between atoms: _470  and  _471
REMARK  200  A    between atoms: _471  and  _472
REMARK  201  A    between atoms: _472  and  _473
REMARK  202  A    between atoms: _482  and  _484
REMARK  203  A    between atoms: _484  and  _485
REMARK  204  A    between atoms: _484  and  _487
REMARK  205  A    between atoms: _487  and  _488
REMARK  206  A    between atoms: _488  and  _489
REMARK  207  A    between atoms: _489  and  _490
REMARK  208  A    between atoms: _490  and  _491
REMARK  209  A    between atoms: _495  and  _497
REMARK  210  A    between atoms: _497  and  _498
REMARK  211  A    between atoms: _497  and  _500
REMARK  212  A    between atoms: _500  and  _501
REMARK  213  A    between atoms: _506  and  _507
REMARK  214  A    between atoms: _509  and  _511
REMARK  215  A    between atoms: _511  and  _512
REMARK  216  A    between atoms: _514  and  _516
REMARK  217  A    between atoms: _516  and  _517
REMARK  218  A    between atoms: _516  and  _519
REMARK  219  A    between atoms: _519  and  _520
REMARK  220  A    between atoms: _523  and  _525
REMARK  221  A    between atoms: _525  and  _526
REMARK  222  A    between atoms: _525  and  _528
REMARK  223  A    between atoms: _528  and  _529
REMARK  224  A    between atoms: _534  and  _535
REMARK  225  A    between atoms: _537  and  _539
REMARK  226  A    between atoms: _539  and  _540
REMARK  227  A    between atoms: _539  and  _542
REMARK  228  A    between atoms: _542  and  _543
REMARK                            x       y       z     vdW  Elec       q    Type
REMARK                         _______ _______ _______ _____ _____    ______ ____
ROOT
ATOM      1  O   HOH     1      -7.782   5.434  26.621  0.00  0.00    +0.000 OA
ENDROOT
TORSDOF 0
REMARK  Name = ../refined-set-2016/2y5f/2y5f_pocket.pdb
REMARK  228 active torsions:
REMARK  status: ('A' for Active; 'I' for Inactive)
REMARK    1  A    between atoms: _1  and  _5
REMARK    2  A    between atoms: _5  and  _6
REMARK    3  A    between atoms: _5  and  _8
REMARK    4  A    between atoms: _8  and  _9
REMARK    5  A    between atoms: _12  and  _14
REMARK    6  A    between atoms: _14  and  _15
REMARK    7  A    between atoms: _14  and  _17
REMARK    8  A    between atoms: _20  and  _22
REMARK    9  A    between atoms: _22  and  _23
REMARK   10  A    between atoms: _22  and  _25
REMARK   11  A    between atoms: _25  and  _26
REMARK   12  A    between atoms: _32  and  _34
REMARK   13  A    between atoms: _34  and  _35
REMARK   14  A    between atoms: _34  and  _37
REMARK   15  A    between atoms: _39  and  _41
REMARK   16  A    between atoms: _41  and  _42
REMARK   17  A    between atoms: _41  and  _44
REMARK   18  A    between atoms: _44  and  _45
REMARK   19  A    between atoms: _50  and  _52
REMARK   20  A    between atoms: _52  and  _53
REMARK   21  A    between atoms: _52  and  _55
REMARK   22  A    between atoms: _55  and  _56
REMARK   23  A    between atoms: _56  and  _57
REMARK   24  A    between atoms: _62  and  _64
REMARK   25  A    between atoms: _64  and  _65
REMARK   26  A    between atoms: _64  and  _67
REMARK   27  A    between atoms: _67  and  _68
REMARK   28  A    between atoms: _74  and  _76
REMARK   29  A    between atoms: _76  and  _77
REMARK   30  A    between atoms: _76  and  _79
REMARK   31  A    between atoms: _79  and  _80
REMARK   32  A    between atoms: _83  and  _85
REMARK   33  A    between atoms: _85  and  _86
REMARK   34  A    between atoms: _85  and  _88
REMARK   35  A    between atoms: _88  and  _89
REMARK   36  A    between atoms: _89  and  _90
REMARK   37  A    between atoms: _90  and  _91
REMARK   38  A    between atoms: _91  and  _92
REMARK   39  A    between atoms: _96  and  _98
REMARK   40  A    between atoms: _98  and  _99
REMARK   41  A    between atoms: _98  and  _101
REMARK   42  A    between atoms: _101  and  _102
REMARK   43  A    between atoms: _102  and  _103
REMARK   44  A    between atoms: _106  and  _108
REMARK   45  A    between atoms: _108  and  _109
REMARK   46  A    between atoms: _108  and  _111
REMARK   47  A    between atoms: _111  and  _112
REMARK   48  A    between atoms: _115  and  _117
REMARK   49  A    between atoms: _117  and  _118
REMARK   50  A    between atoms: _117  and  _120
REMARK   51  A    between atoms: _120  and  _121
REMARK   52  A    between atoms: _126  and  _127
REMARK   53  A    between atoms: _129  and  _131
REMARK   54  A    between atoms: _131  and  _132
REMARK   55  A    between atoms: _131  and  _134
REMARK   56  A    between atoms: _134  and  _135
REMARK   57  A    between atoms: _138  and  _140
REMARK   58  A    between atoms: _140  and  _141
REMARK   59  A    between atoms: _140  and  _143
REMARK   60  A    between atoms: _143  and  _144
REMARK   61  A    between atoms: _147  and  _149
REMARK   62  A    between atoms: _149  and  _150
REMARK   63  A    between atoms: _149  and  _152
REMARK   64  A    between atoms: _155  and  _157
REMARK   65  A    between atoms: _157  and  _158
REMARK   66  A    between atoms: _157  and  _160
REMARK   67  A    between atoms: _160  and  _161
REMARK   68  A    between atoms: _161  and  _162
REMARK   69  A    between atoms: _162  and  _163
REMARK   70  A    between atoms: _172  and  _174
REMARK   71  A    between atoms: _174  and  _175
REMARK   72  A    between atoms: _174  and  _177
REMARK   73  A    between atoms: _177  and  _178
REMARK   74  A    between atoms: _183  and  _185
REMARK   75  A    between atoms: _185  and  _186
REMARK   76  A    between atoms: _185  and  _188
REMARK   77  A    between atoms: _188  and  _189
REMARK   78  A    between atoms: _189  and  _190
REMARK   79  A    between atoms: _193  and  _195
REMARK   80  A    between atoms: _195  and  _196
REMARK   81  A    between atoms: _195  and  _198
REMARK   82  A    between atoms: _198  and  _199
REMARK   83  A    between atoms: _199  and  _200
REMARK   84  A    between atoms: _200  and  _201
REMARK   85  A    between atoms: _201  and  _202
REMARK   86  A    between atoms: _206  and  _208
REMARK   87  A    between atoms: _208  and  _209
REMARK   88  A    between atoms: _211  and  _213
REMARK   89  A    between atoms: _213  and  _214
REMARK   90  A    between atoms: _213  and  _216
REMARK   91  A    between atoms: _219  and  _221
REMARK   92  A    between atoms: _221  and  _222
REMARK   93  A    between atoms: _221  and  _224
REMARK   94  A    between atoms: _224  and  _225
REMARK   95  A    between atoms: _227  and  _229
REMARK   96  A    between atoms: _229  and  _230
REMARK   97  A    between atoms: _229  and  _232
REMARK   98  A    between atoms: _232  and  _233
REMARK   99  A    between atoms: _235  and  _237
REMARK  100  A    between atoms: _237  and  _238
REMARK  101  A    between atoms: _237  and  _240
REMARK  102  A    between atoms: _240  and  _241
REMARK  103  A    between atoms: _247  and  _249
REMARK  104  A    between atoms: _249  and  _250
REMARK  105  A    between atoms: _249  and  _252
REMARK  106  A    between atoms: _252  and  _253
REMARK  107  A    between atoms: _256  and  _258
REMARK  108  A    between atoms: _258  and  _259
REMARK  109  A    between atoms: _258  and  _261
REMARK  110  A    between atoms: _261  and  _262
REMARK  111  A    between atoms: _265  and  _267
REMARK  112  A    between atoms: _267  and  _268
REMARK  113  A    between atoms: _267  and  _270
REMARK  114  A    between atoms: _270  and  _271
REMARK  115  A    between atoms: _271  and  _272
REMARK  116  A    between atoms: _274  and  _276
REMARK  117  A    between atoms: _276  and  _277
REMARK  118  A    between atoms: _276  and  _279
REMARK  119  A    between atoms: _279  and  _280
REMARK  120  A    between atoms: _286  and  _288
REMARK  121  A    between atoms: _288  and  _289
REMARK  122  A    between atoms: _288  and  _291
REMARK  123  A    between atoms: _293  and  _295
REMARK  124  A    between atoms: _295  and  _296
REMARK  125  A    between atoms: _299  and  _301
REMARK  126  A    between atoms: _301  and  _302
REMARK  127  A    between atoms: _304  and  _306
REMARK  128  A    between atoms: _306  and  _307
REMARK  129  A    between atoms: _306  and  _309
REMARK  130  A    between atoms: _309  and  _310
REMARK  131  A    between atoms: _310  and  _311
REMARK  132  A    between atoms: _314  and  _316
REMARK  133  A    between atoms: _316  and  _317
REMARK  134  A    between atoms: _316  and  _319
REMARK  135  A    between atoms: _319  and  _320
REMARK  136  A    between atoms: _323  and  _325
REMARK  137  A    between atoms: _325  and  _326
REMARK  138  A    between atoms: _329  and  _331
REMARK  139  A    between atoms: _331  and  _332
REMARK  140  A    between atoms: _331  and  _334
REMARK  141  A    between atoms: _334  and  _335
REMARK  142  A    between atoms: _335  and  _458
REMARK  143  A    between atoms: _336  and  _338
REMARK  144  A    between atoms: _338  and  _339
REMARK  145  A    between atoms: _338  and  _341
REMARK  146  A    between atoms: _341  and  _342
REMARK  147  A    between atoms: _342  and  _343
REMARK  148  A    between atoms: _348  and  _350
REMARK  149  A    between atoms: _350  and  _351
REMARK  150  A    between atoms: _353  and  _355
REMARK  151  A    between atoms: _355  and  _356
REMARK  152  A    between atoms: _355  and  _358
REMARK  153  A    between atoms: _358  and  _359
REMARK  154  A    between atoms: _362  and  _364
REMARK  155  A    between atoms: _364  and  _365
REMARK  156  A    between atoms: _364  and  _367
REMARK  157  A    between atoms: _367  and  _368
REMARK  158  A    between atoms: _370  and  _372
REMARK  159  A    between atoms: _372  and  _373
REMARK  160  A    between atoms: _375  and  _377
REMARK  161  A    between atoms: _377  and  _378
REMARK  162  A    between atoms: _380  and  _382
REMARK  163  A    between atoms: _382  and  _383
REMARK  164  A    between atoms: _382  and  _385
REMARK  165  A    between atoms: _385  and  _386
REMARK  166  A    between atoms: _391  and  _393
REMARK  167  A    between atoms: _393  and  _394
REMARK  168  A    between atoms: _393  and  _396
REMARK  169  A    between atoms: _396  and  _397
REMARK  170  A    between atoms: _400  and  _402
REMARK  171  A    between atoms: _402  and  _403
REMARK  172  A    between atoms: _402  and  _405
REMARK  173  A    between atoms: _408  and  _410
REMARK  174  A    between atoms: _410  and  _411
REMARK  175  A    between atoms: _410  and  _413
REMARK  176  A    between atoms: _413  and  _414
REMARK  177  A    between atoms: _416  and  _418
REMARK  178  A    between atoms: _418  and  _419
REMARK  179  A    between atoms: _418  and  _421
REMARK  180  A    between atoms: _421  and  _422
REMARK  181  A    between atoms: _432  and  _434
REMARK  182  A    between atoms: _434  and  _435
REMARK  183  A    between atoms: _437  and  _439
REMARK  184  A    between atoms: _439  and  _440
REMARK  185  A    between atoms: _439  and  _442
REMARK  186  A    between atoms: _442  and  _443
REMARK  187  A    between atoms: _443  and  _444
REMARK  188  A    between atoms: _447  and  _449
REMARK  189  A    between atoms: _449  and  _450
REMARK  190  A    between atoms: _452  and  _454
REMARK  191  A    between atoms: _454  and  _455
REMARK  192  A    between atoms: _454  and  _457
REMARK  193  A    between atoms: _457  and  _458
REMARK  194  A    between atoms: _459  and  _461
REMARK  195  A    between atoms: _461  and  _462
REMARK  196  A    between atoms: _465  and  _467
REMARK  197  A    between atoms: _467  and  _468
REMARK  198  A    between atoms: _467  and  _470
REMARK  199  A    between atoms: _470  and  _471
REMARK  200  A    between atoms: _471  and  _472
REMARK  201  A    between atoms: _472  and  _473
REMARK  202  A    between atoms: _482  and  _484
REMARK  203  A    between atoms: _484  and  _485
REMARK  204  A    between atoms: _484  and  _487
REMARK  205  A    between atoms: _487  and  _488
REMARK  206  A    between atoms: _488  and  _489
REMARK  207  A    between atoms: _489  and  _490
REMARK  208  A    between atoms: _490  and  _491
REMARK  209  A    between atoms: _495  and  _497
REMARK  210  A    between atoms: _497  and  _498
REMARK  211  A    between atoms: _497  and  _500
REMARK  212  A    between atoms: _500  and  _501
REMARK  213  A    between atoms: _506  and  _507
REMARK  214  A    between atoms: _509  and  _511
REMARK  215  A    between atoms: _511  and  _512
REMARK  216  A    between atoms: _514  and  _516
REMARK  217  A    between atoms: _516  and  _517
REMARK  218  A    between atoms: _516  and  _519
REMARK  219  A    between atoms: _519  and  _520
REMARK  220  A    between atoms: _523  and  _525
REMARK  221  A    between atoms: _525  and  _526
REMARK  222  A    between atoms: _525  and  _528
REMARK  223  A    between atoms: _528  and  _529
REMARK  224  A    between atoms: _534  and  _535
REMARK  225  A    between atoms: _537  and  _539
REMARK  226  A    between atoms: _539  and  _540
REMARK  227  A    between atoms: _539  and  _542
REMARK  228  A    between atoms: _542  and  _543
REMARK                            x       y       z     vdW  Elec       q    Type
REMARK                         _______ _______ _______ _____ _____    ______ ____
ROOT
ATOM      1  O   HOH     1      -1.242   4.181  31.892  0.00  0.00    +0.000 OA
ENDROOT
TORSDOF 0
REMARK  Name = ../refined-set-2016/2y5f/2y5f_pocket.pdb
REMARK  228 active torsions:
REMARK  status: ('A' for Active; 'I' for Inactive)
REMARK    1  A    between atoms: _1  and  _5
REMARK    2  A    between atoms: _5  and  _6
REMARK    3  A    between atoms: _5  and  _8
REMARK    4  A    between atoms: _8  and  _9
REMARK    5  A    between atoms: _12  and  _14
REMARK    6  A    between atoms: _14  and  _15
REMARK    7  A    between atoms: _14  and  _17
REMARK    8  A    between atoms: _20  and  _22
REMARK    9  A    between atoms: _22  and  _23
REMARK   10  A    between atoms: _22  and  _25
REMARK   11  A    between atoms: _25  and  _26
REMARK   12  A    between atoms: _32  and  _34
REMARK   13  A    between atoms: _34  and  _35
REMARK   14  A    between atoms: _34  and  _37
REMARK   15  A    between atoms: _39  and  _41
REMARK   16  A    between atoms: _41  and  _42
REMARK   17  A    between atoms: _41  and  _44
REMARK   18  A    between atoms: _44  and  _45
REMARK   19  A    between atoms: _50  and  _52
REMARK   20  A    between atoms: _52  and  _53
REMARK   21  A    between atoms: _52  and  _55
REMARK   22  A    between atoms: _55  and  _56
REMARK   23  A    between atoms: _56  and  _57
REMARK   24  A    between atoms: _62  and  _64
REMARK   25  A    between atoms: _64  and  _65
REMARK   26  A    between atoms: _64  and  _67
REMARK   27  A    between atoms: _67  and  _68
REMARK   28  A    between atoms: _74  and  _76
REMARK   29  A    between atoms: _76  and  _77
REMARK   30  A    between atoms: _76  and  _79
REMARK   31  A    between atoms: _79  and  _80
REMARK   32  A    between atoms: _83  and  _85
REMARK   33  A    between atoms: _85  and  _86
REMARK   34  A    between atoms: _85  and  _88
REMARK   35  A    between atoms: _88  and  _89
REMARK   36  A    between atoms: _89  and  _90
REMARK   37  A    between atoms: _90  and  _91
REMARK   38  A    between atoms: _91  and  _92
REMARK   39  A    between atoms: _96  and  _98
REMARK   40  A    between atoms: _98  and  _99
REMARK   41  A    between atoms: _98  and  _101
REMARK   42  A    between atoms: _101  and  _102
REMARK   43  A    between atoms: _102  and  _103
REMARK   44  A    between atoms: _106  and  _108
REMARK   45  A    between atoms: _108  and  _109
REMARK   46  A    between atoms: _108  and  _111
REMARK   47  A    between atoms: _111  and  _112
REMARK   48  A    between atoms: _115  and  _117
REMARK   49  A    between atoms: _117  and  _118
REMARK   50  A    between atoms: _117  and  _120
REMARK   51  A    between atoms: _120  and  _121
REMARK   52  A    between atoms: _126  and  _127
REMARK   53  A    between atoms: _129  and  _131
REMARK   54  A    between atoms: _131  and  _132
REMARK   55  A    between atoms: _131  and  _134
REMARK   56  A    between atoms: _134  and  _135
REMARK   57  A    between atoms: _138  and  _140
REMARK   58  A    between atoms: _140  and  _141
REMARK   59  A    between atoms: _140  and  _143
REMARK   60  A    between atoms: _143  and  _144
REMARK   61  A    between atoms: _147  and  _149
REMARK   62  A    between atoms: _149  and  _150
REMARK   63  A    between atoms: _149  and  _152
REMARK   64  A    between atoms: _155  and  _157
REMARK   65  A    between atoms: _157  and  _158
REMARK   66  A    between atoms: _157  and  _160
REMARK   67  A    between atoms: _160  and  _161
REMARK   68  A    between atoms: _161  and  _162
REMARK   69  A    between atoms: _162  and  _163
REMARK   70  A    between atoms: _172  and  _174
REMARK   71  A    between atoms: _174  and  _175
REMARK   72  A    between atoms: _174  and  _177
REMARK   73  A    between atoms: _177  and  _178
REMARK   74  A    between atoms: _183  and  _185
REMARK   75  A    between atoms: _185  and  _186
REMARK   76  A    between atoms: _185  and  _188
REMARK   77  A    between atoms: _188  and  _189
REMARK   78  A    between atoms: _189  and  _190
REMARK   79  A    between atoms: _193  and  _195
REMARK   80  A    between atoms: _195  and  _196
REMARK   81  A    between atoms: _195  and  _198
REMARK   82  A    between atoms: _198  and  _199
REMARK   83  A    between atoms: _199  and  _200
REMARK   84  A    between atoms: _200  and  _201
REMARK   85  A    between atoms: _201  and  _202
REMARK   86  A    between atoms: _206  and  _208
REMARK   87  A    between atoms: _208  and  _209
REMARK   88  A    between atoms: _211  and  _213
REMARK   89  A    between atoms: _213  and  _214
REMARK   90  A    between atoms: _213  and  _216
REMARK   91  A    between atoms: _219  and  _221
REMARK   92  A    between atoms: _221  and  _222
REMARK   93  A    between atoms: _221  and  _224
REMARK   94  A    between atoms: _224  and  _225
REMARK   95  A    between atoms: _227  and  _229
REMARK   96  A    between atoms: _229  and  _230
REMARK   97  A    between atoms: _229  and  _232
REMARK   98  A    between atoms: _232  and  _233
REMARK   99  A    between atoms: _235  and  _237
REMARK  100  A    between atoms: _237  and  _238
REMARK  101  A    between atoms: _237  and  _240
REMARK  102  A    between atoms: _240  and  _241
REMARK  103  A    between atoms: _247  and  _249
REMARK  104  A    between atoms: _249  and  _250
REMARK  105  A    between atoms: _249  and  _252
REMARK  106  A    between atoms: _252  and  _253
REMARK  107  A    between atoms: _256  and  _258
REMARK  108  A    between atoms: _258  and  _259
REMARK  109  A    between atoms: _258  and  _261
REMARK  110  A    between atoms: _261  and  _262
REMARK  111  A    between atoms: _265  and  _267
REMARK  112  A    between atoms: _267  and  _268
REMARK  113  A    between atoms: _267  and  _270
REMARK  114  A    between atoms: _270  and  _271
REMARK  115  A    between atoms: _271  and  _272
REMARK  116  A    between atoms: _274  and  _276
REMARK  117  A    between atoms: _276  and  _277
REMARK  118  A    between atoms: _276  and  _279
REMARK  119  A    between atoms: _279  and  _280
REMARK  120  A    between atoms: _286  and  _288
REMARK  121  A    between atoms: _288  and  _289
REMARK  122  A    between atoms: _288  and  _291
REMARK  123  A    between atoms: _293  and  _295
REMARK  124  A    between atoms: _295  and  _296
REMARK  125  A    between atoms: _299  and  _301
REMARK  126  A    between atoms: _301  and  _302
REMARK  127  A    between atoms: _304  and  _306
REMARK  128  A    between atoms: _306  and  _307
REMARK  129  A    between atoms: _306  and  _309
REMARK  130  A    between atoms: _309  and  _310
REMARK  131  A    between atoms: _310  and  _311
REMARK  132  A    between atoms: _314  and  _316
REMARK  133  A    between atoms: _316  and  _317
REMARK  134  A    between atoms: _316  and  _319
REMARK  135  A    between atoms: _319  and  _320
REMARK  136  A    between atoms: _323  and  _325
REMARK  137  A    between atoms: _325  and  _326
REMARK  138  A    between atoms: _329  and  _331
REMARK  139  A    between atoms: _331  and  _332
REMARK  140  A    between atoms: _331  and  _334
REMARK  141  A    between atoms: _334  and  _335
REMARK  142  A    between atoms: _335  and  _458
REMARK  143  A    between atoms: _336  and  _338
REMARK  144  A    between atoms: _338  and  _339
REMARK  145  A    between atoms: _338  and  _341
REMARK  146  A    between atoms: _341  and  _342
REMARK  147  A    between atoms: _342  and  _343
REMARK  148  A    between atoms: _348  and  _350
REMARK  149  A    between atoms: _350  and  _351
REMARK  150  A    between atoms: _353  and  _355
REMARK  151  A    between atoms: _355  and  _356
REMARK  152  A    between atoms: _355  and  _358
REMARK  153  A    between atoms: _358  and  _359
REMARK  154  A    between atoms: _362  and  _364
REMARK  155  A    between atoms: _364  and  _365
REMARK  156  A    between atoms: _364  and  _367
REMARK  157  A    between atoms: _367  and  _368
REMARK  158  A    between atoms: _370  and  _372
REMARK  159  A    between atoms: _372  and  _373
REMARK  160  A    between atoms: _375  and  _377
REMARK  161  A    between atoms: _377  and  _378
REMARK  162  A    between atoms: _380  and  _382
REMARK  163  A    between atoms: _382  and  _383
REMARK  164  A    between atoms: _382  and  _385
REMARK  165  A    between atoms: _385  and  _386
REMARK  166  A    between atoms: _391  and  _393
REMARK  167  A    between atoms: _393  and  _394
REMARK  168  A    between atoms: _393  and  _396
REMARK  169  A    between atoms: _396  and  _397
REMARK  170  A    between atoms: _400  and  _402
REMARK  171  A    between atoms: _402  and  _403
REMARK  172  A    between atoms: _402  and  _405
REMARK  173  A    between atoms: _408  and  _410
REMARK  174  A    between atoms: _410  and  _411
REMARK  175  A    between atoms: _410  and  _413
REMARK  176  A    between atoms: _413  and  _414
REMARK  177  A    between atoms: _416  and  _418
REMARK  178  A    between atoms: _418  and  _419
REMARK  179  A    between atoms: _418  and  _421
REMARK  180  A    between atoms: _421  and  _422
REMARK  181  A    between atoms: _432  and  _434
REMARK  182  A    between atoms: _434  and  _435
REMARK  183  A    between atoms: _437  and  _439
REMARK  184  A    between atoms: _439  and  _440
REMARK  185  A    between atoms: _439  and  _442
REMARK  186  A    between atoms: _442  and  _443
REMARK  187  A    between atoms: _443  and  _444
REMARK  188  A    between atoms: _447  and  _449
REMARK  189  A    between atoms: _449  and  _450
REMARK  190  A    between atoms: _452  and  _454
REMARK  191  A    between atoms: _454  and  _455
REMARK  192  A    between atoms: _454  and  _457
REMARK  193  A    between atoms: _457  and  _458
REMARK  194  A    between atoms: _459  and  _461
REMARK  195  A    between atoms: _461  and  _462
REMARK  196  A    between atoms: _465  and  _467
REMARK  197  A    between atoms: _467  and  _468
REMARK  198  A    between atoms: _467  and  _470
REMARK  199  A    between atoms: _470  and  _471
REMARK  200  A    between atoms: _471  and  _472
REMARK  201  A    between atoms: _472  and  _473
REMARK  202  A    between atoms: _482  and  _484
REMARK  203  A    between atoms: _484  and  _485
REMARK  204  A    between atoms: _484  and  _487
REMARK  205  A    between atoms: _487  and  _488
REMARK  206  A    between atoms: _488  and  _489
REMARK  207  A    between atoms: _489  and  _490
REMARK  208  A    between atoms: _490  and  _491
REMARK  209  A    between atoms: _495  and  _497
REMARK  210  A    between atoms: _497  and  _498
REMARK  211  A    between atoms: _497  and  _500
REMARK  212  A    between atoms: _500  and  _501
REMARK  213  A    between atoms: _506  and  _507
REMARK  214  A    between atoms: _509  and  _511
REMARK  215  A    between atoms: _511  and  _512
REMARK  216  A    between atoms: _514  and  _516
REMARK  217  A    between atoms: _516  and  _517
REMARK  218  A    between atoms: _516  and  _519
REMARK  219  A    between atoms: _519  and  _520
REMARK  220  A    between atoms: _523  and  _525
REMARK  221  A    between atoms: _525  and  _526
REMARK  222  A    between atoms: _525  and  _528
REMARK  223  A    between atoms: _528  and  _529
REMARK  224  A    between atoms: _534  and  _535
REMARK  225  A    between atoms: _537  and  _539
REMARK  226  A    between atoms: _539  and  _540
REMARK  227  A    between atoms: _539  and  _542
REMARK  228  A    between atoms: _542  and  _543
REMARK                            x       y       z     vdW  Elec       q    Type
REMARK                         _______ _______ _______ _____ _____    ______ ____
ROOT
ATOM      1  O   HOH     1      -8.854   7.621  14.246  0.00  0.00    +0.000 OA
ENDROOT
TORSDOF 0
REMARK  Name = ../refined-set-2016/2y5f/2y5f_pocket.pdb
REMARK  228 active torsions:
REMARK  status: ('A' for Active; 'I' for Inactive)
REMARK    1  A    between atoms: _1  and  _5
REMARK    2  A    between atoms: _5  and  _6
REMARK    3  A    between atoms: _5  and  _8
REMARK    4  A    between atoms: _8  and  _9
REMARK    5  A    between atoms: _12  and  _14
REMARK    6  A    between atoms: _14  and  _15
REMARK    7  A    between atoms: _14  and  _17
REMARK    8  A    between atoms: _20  and  _22
REMARK    9  A    between atoms: _22  and  _23
REMARK   10  A    between atoms: _22  and  _25
REMARK   11  A    between atoms: _25  and  _26
REMARK   12  A    between atoms: _32  and  _34
REMARK   13  A    between atoms: _34  and  _35
REMARK   14  A    between atoms: _34  and  _37
REMARK   15  A    between atoms: _39  and  _41
REMARK   16  A    between atoms: _41  and  _42
REMARK   17  A    between atoms: _41  and  _44
REMARK   18  A    between atoms: _44  and  _45
REMARK   19  A    between atoms: _50  and  _52
REMARK   20  A    between atoms: _52  and  _53
REMARK   21  A    between atoms: _52  and  _55
REMARK   22  A    between atoms: _55  and  _56
REMARK   23  A    between atoms: _56  and  _57
REMARK   24  A    between atoms: _62  and  _64
REMARK   25  A    between atoms: _64  and  _65
REMARK   26  A    between atoms: _64  and  _67
REMARK   27  A    between atoms: _67  and  _68
REMARK   28  A    between atoms: _74  and  _76
REMARK   29  A    between atoms: _76  and  _77
REMARK   30  A    between atoms: _76  and  _79
REMARK   31  A    between atoms: _79  and  _80
REMARK   32  A    between atoms: _83  and  _85
REMARK   33  A    between atoms: _85  and  _86
REMARK   34  A    between atoms: _85  and  _88
REMARK   35  A    between atoms: _88  and  _89
REMARK   36  A    between atoms: _89  and  _90
REMARK   37  A    between atoms: _90  and  _91
REMARK   38  A    between atoms: _91  and  _92
REMARK   39  A    between atoms: _96  and  _98
REMARK   40  A    between atoms: _98  and  _99
REMARK   41  A    between atoms: _98  and  _101
REMARK   42  A    between atoms: _101  and  _102
REMARK   43  A    between atoms: _102  and  _103
REMARK   44  A    between atoms: _106  and  _108
REMARK   45  A    between atoms: _108  and  _109
REMARK   46  A    between atoms: _108  and  _111
REMARK   47  A    between atoms: _111  and  _112
REMARK   48  A    between atoms: _115  and  _117
REMARK   49  A    between atoms: _117  and  _118
REMARK   50  A    between atoms: _117  and  _120
REMARK   51  A    between atoms: _120  and  _121
REMARK   52  A    between atoms: _126  and  _127
REMARK   53  A    between atoms: _129  and  _131
REMARK   54  A    between atoms: _131  and  _132
REMARK   55  A    between atoms: _131  and  _134
REMARK   56  A    between atoms: _134  and  _135
REMARK   57  A    between atoms: _138  and  _140
REMARK   58  A    between atoms: _140  and  _141
REMARK   59  A    between atoms: _140  and  _143
REMARK   60  A    between atoms: _143  and  _144
REMARK   61  A    between atoms: _147  and  _149
REMARK   62  A    between atoms: _149  and  _150
REMARK   63  A    between atoms: _149  and  _152
REMARK   64  A    between atoms: _155  and  _157
REMARK   65  A    between atoms: _157  and  _158
REMARK   66  A    between atoms: _157  and  _160
REMARK   67  A    between atoms: _160  and  _161
REMARK   68  A    between atoms: _161  and  _162
REMARK   69  A    between atoms: _162  and  _163
REMARK   70  A    between atoms: _172  and  _174
REMARK   71  A    between atoms: _174  and  _175
REMARK   72  A    between atoms: _174  and  _177
REMARK   73  A    between atoms: _177  and  _178
REMARK   74  A    between atoms: _183  and  _185
REMARK   75  A    between atoms: _185  and  _186
REMARK   76  A    between atoms: _185  and  _188
REMARK   77  A    between atoms: _188  and  _189
REMARK   78  A    between atoms: _189  and  _190
REMARK   79  A    between atoms: _193  and  _195
REMARK   80  A    between atoms: _195  and  _196
REMARK   81  A    between atoms: _195  and  _198
REMARK   82  A    between atoms: _198  and  _199
REMARK   83  A    between atoms: _199  and  _200
REMARK   84  A    between atoms: _200  and  _201
REMARK   85  A    between atoms: _201  and  _202
REMARK   86  A    between atoms: _206  and  _208
REMARK   87  A    between atoms: _208  and  _209
REMARK   88  A    between atoms: _211  and  _213
REMARK   89  A    between atoms: _213  and  _214
REMARK   90  A    between atoms: _213  and  _216
REMARK   91  A    between atoms: _219  and  _221
REMARK   92  A    between atoms: _221  and  _222
REMARK   93  A    between atoms: _221  and  _224
REMARK   94  A    between atoms: _224  and  _225
REMARK   95  A    between atoms: _227  and  _229
REMARK   96  A    between atoms: _229  and  _230
REMARK   97  A    between atoms: _229  and  _232
REMARK   98  A    between atoms: _232  and  _233
REMARK   99  A    between atoms: _235  and  _237
REMARK  100  A    between atoms: _237  and  _238
REMARK  101  A    between atoms: _237  and  _240
REMARK  102  A    between atoms: _240  and  _241
REMARK  103  A    between atoms: _247  and  _249
REMARK  104  A    between atoms: _249  and  _250
REMARK  105  A    between atoms: _249  and  _252
REMARK  106  A    between atoms: _252  and  _253
REMARK  107  A    between atoms: _256  and  _258
REMARK  108  A    between atoms: _258  and  _259
REMARK  109  A    between atoms: _258  and  _261
REMARK  110  A    between atoms: _261  and  _262
REMARK  111  A    between atoms: _265  and  _267
REMARK  112  A    between atoms: _267  and  _268
REMARK  113  A    between atoms: _267  and  _270
REMARK  114  A    between atoms: _270  and  _271
REMARK  115  A    between atoms: _271  and  _272
REMARK  116  A    between atoms: _274  and  _276
REMARK  117  A    between atoms: _276  and  _277
REMARK  118  A    between atoms: _276  and  _279
REMARK  119  A    between atoms: _279  and  _280
REMARK  120  A    between atoms: _286  and  _288
REMARK  121  A    between atoms: _288  and  _289
REMARK  122  A    between atoms: _288  and  _291
REMARK  123  A    between atoms: _293  and  _295
REMARK  124  A    between atoms: _295  and  _296
REMARK  125  A    between atoms: _299  and  _301
REMARK  126  A    between atoms: _301  and  _302
REMARK  127  A    between atoms: _304  and  _306
REMARK  128  A    between atoms: _306  and  _307
REMARK  129  A    between atoms: _306  and  _309
REMARK  130  A    between atoms: _309  and  _310
REMARK  131  A    between atoms: _310  and  _311
REMARK  132  A    between atoms: _314  and  _316
REMARK  133  A    between atoms: _316  and  _317
REMARK  134  A    between atoms: _316  and  _319
REMARK  135  A    between atoms: _319  and  _320
REMARK  136  A    between atoms: _323  and  _325
REMARK  137  A    between atoms: _325  and  _326
REMARK  138  A    between atoms: _329  and  _331
REMARK  139  A    between atoms: _331  and  _332
REMARK  140  A    between atoms: _331  and  _334
REMARK  141  A    between atoms: _334  and  _335
REMARK  142  A    between atoms: _335  and  _458
REMARK  143  A    between atoms: _336  and  _338
REMARK  144  A    between atoms: _338  and  _339
REMARK  145  A    between atoms: _338  and  _341
REMARK  146  A    between atoms: _341  and  _342
REMARK  147  A    between atoms: _342  and  _343
REMARK  148  A    between atoms: _348  and  _350
REMARK  149  A    between atoms: _350  and  _351
REMARK  150  A    between atoms: _353  and  _355
REMARK  151  A    between atoms: _355  and  _356
REMARK  152  A    between atoms: _355  and  _358
REMARK  153  A    between atoms: _358  and  _359
REMARK  154  A    between atoms: _362  and  _364
REMARK  155  A    between atoms: _364  and  _365
REMARK  156  A    between atoms: _364  and  _367
REMARK  157  A    between atoms: _367  and  _368
REMARK  158  A    between atoms: _370  and  _372
REMARK  159  A    between atoms: _372  and  _373
REMARK  160  A    between atoms: _375  and  _377
REMARK  161  A    between atoms: _377  and  _378
REMARK  162  A    between atoms: _380  and  _382
REMARK  163  A    between atoms: _382  and  _383
REMARK  164  A    between atoms: _382  and  _385
REMARK  165  A    between atoms: _385  and  _386
REMARK  166  A    between atoms: _391  and  _393
REMARK  167  A    between atoms: _393  and  _394
REMARK  168  A    between atoms: _393  and  _396
REMARK  169  A    between atoms: _396  and  _397
REMARK  170  A    between atoms: _400  and  _402
REMARK  171  A    between atoms: _402  and  _403
REMARK  172  A    between atoms: _402  and  _405
REMARK  173  A    between atoms: _408  and  _410
REMARK  174  A    between atoms: _410  and  _411
REMARK  175  A    between atoms: _410  and  _413
REMARK  176  A    between atoms: _413  and  _414
REMARK  177  A    between atoms: _416  and  _418
REMARK  178  A    between atoms: _418  and  _419
REMARK  179  A    between atoms: _418  and  _421
REMARK  180  A    between atoms: _421  and  _422
REMARK  181  A    between atoms: _432  and  _434
REMARK  182  A    between atoms: _434  and  _435
REMARK  183  A    between atoms: _437  and  _439
REMARK  184  A    between atoms: _439  and  _440
REMARK  185  A    between atoms: _439  and  _442
REMARK  186  A    between atoms: _442  and  _443
REMARK  187  A    between atoms: _443  and  _444
REMARK  188  A    between atoms: _447  and  _449
REMARK  189  A    between atoms: _449  and  _450
REMARK  190  A    between atoms: _452  and  _454
REMARK  191  A    between atoms: _454  and  _455
REMARK  192  A    between atoms: _454  and  _457
REMARK  193  A    between atoms: _457  and  _458
REMARK  194  A    between atoms: _459  and  _461
REMARK  195  A    between atoms: _461  and  _462
REMARK  196  A    between atoms: _465  and  _467
REMARK  197  A    between atoms: _467  and  _468
REMARK  198  A    between atoms: _467  and  _470
REMARK  199  A    between atoms: _470  and  _471
REMARK  200  A    between atoms: _471  and  _472
REMARK  201  A    between atoms: _472  and  _473
REMARK  202  A    between atoms: _482  and  _484
REMARK  203  A    between atoms: _484  and  _485
REMARK  204  A    between atoms: _484  and  _487
REMARK  205  A    between atoms: _487  and  _488
REMARK  206  A    between atoms: _488  and  _489
REMARK  207  A    between atoms: _489  and  _490
REMARK  208  A    between atoms: _490  and  _491
REMARK  209  A    between atoms: _495  and  _497
REMARK  210  A    between atoms: _497  and  _498
REMARK  211  A    between atoms: _497  and  _500
REMARK  212  A    between atoms: _500  and  _501
REMARK  213  A    between atoms: _506  and  _507
REMARK  214  A    between atoms: _509  and  _511
REMARK  215  A    between atoms: _511  and  _512
REMARK  216  A    between atoms: _514  and  _516
REMARK  217  A    between atoms: _516  and  _517
REMARK  218  A    between atoms: _516  and  _519
REMARK  219  A    between atoms: _519  and  _520
REMARK  220  A    between atoms: _523  and  _525
REMARK  221  A    between atoms: _525  and  _526
REMARK  222  A    between atoms: _525  and  _528
REMARK  223  A    between atoms: _528  and  _529
REMARK  224  A    between atoms: _534  and  _535
REMARK  225  A    between atoms: _537  and  _539
REMARK  226  A    between atoms: _539  and  _540
REMARK  227  A    between atoms: _539  and  _542
REMARK  228  A    between atoms: _542  and  _543
REMARK                            x       y       z     vdW  Elec       q    Type
REMARK                         _______ _______ _______ _____ _____    ______ ____
ROOT
ATOM      1  O   HOH     1      -9.009  12.404  22.953  0.00  0.00    +0.000 OA
ENDROOT
TORSDOF 0
