REMARK  Name = ../refined-set-2016/1bnv/1bnv_pocket.pdb
REMARK  152 active torsions:
REMARK  status: ('A' for Active; 'I' for Inactive)
REMARK    1  A    between atoms: _1  and  _3
REMARK    2  A    between atoms: _3  and  _4
REMARK    3  A    between atoms: _3  and  _6
REMARK    4  A    between atoms: _6  and  _7
REMARK    5  A    between atoms: _17  and  _19
REMARK    6  A    between atoms: _19  and  _20
REMARK    7  A    between atoms: _19  and  _22
REMARK    8  A    between atoms: _22  and  _23
REMARK    9  A    between atoms: _28  and  _29
REMARK   10  A    between atoms: _31  and  _33
REMARK   11  A    between atoms: _33  and  _34
REMARK   12  A    between atoms: _33  and  _36
REMARK   13  A    between atoms: _36  and  _37
REMARK   14  A    between atoms: _40  and  _41
REMARK   15  A    between atoms: _46  and  _48
REMARK   16  A    between atoms: _48  and  _49
REMARK   17  A    between atoms: _48  and  _51
REMARK   18  A    between atoms: _51  and  _52
REMARK   19  A    between atoms: _57  and  _59
REMARK   20  A    between atoms: _59  and  _60
REMARK   21  A    between atoms: _59  and  _62
REMARK   22  A    between atoms: _62  and  _63
REMARK   23  A    between atoms: _68  and  _70
REMARK   24  A    between atoms: _70  and  _71
REMARK   25  A    between atoms: _74  and  _76
REMARK   26  A    between atoms: _76  and  _77
REMARK   27  A    between atoms: _76  and  _79
REMARK   28  A    between atoms: _79  and  _80
REMARK   29  A    between atoms: _85  and  _87
REMARK   30  A    between atoms: _87  and  _88
REMARK   31  A    between atoms: _87  and  _90
REMARK   32  A    between atoms: _90  and  _91
REMARK   33  A    between atoms: _94  and  _96
REMARK   34  A    between atoms: _96  and  _97
REMARK   35  A    between atoms: _96  and  _99
REMARK   36  A    between atoms: _99  and  _100
REMARK   37  A    between atoms: _100  and  _101
REMARK   38  A    between atoms: _106  and  _108
REMARK   39  A    between atoms: _108  and  _109
REMARK   40  A    between atoms: _108  and  _111
REMARK   41  A    between atoms: _111  and  _112
REMARK   42  A    between atoms: _118  and  _120
REMARK   43  A    between atoms: _131  and  _134
REMARK   44  A    between atoms: _134  and  _135
REMARK   45  A    between atoms: _143  and  _144
REMARK   46  A    between atoms: _152  and  _154
REMARK   47  A    between atoms: _154  and  _155
REMARK   48  A    between atoms: _154  and  _157
REMARK   49  A    between atoms: _157  and  _158
REMARK   50  A    between atoms: _158  and  _159
REMARK   51  A    between atoms: _162  and  _164
REMARK   52  A    between atoms: _164  and  _165
REMARK   53  A    between atoms: _164  and  _167
REMARK   54  A    between atoms: _167  and  _168
REMARK   55  A    between atoms: _173  and  _175
REMARK   56  A    between atoms: _175  and  _176
REMARK   57  A    between atoms: _175  and  _178
REMARK   58  A    between atoms: _178  and  _179
REMARK   59  A    between atoms: _179  and  _180
REMARK   60  A    between atoms: _183  and  _185
REMARK   61  A    between atoms: _185  and  _186
REMARK   62  A    between atoms: _185  and  _188
REMARK   63  A    between atoms: _188  and  _189
REMARK   64  A    between atoms: _192  and  _194
REMARK   65  A    between atoms: _194  and  _195
REMARK   66  A    between atoms: _194  and  _197
REMARK   67  A    between atoms: _197  and  _198
REMARK   68  A    between atoms: _199  and  ZN_426
REMARK   69  A    between atoms: _203  and  _205
REMARK   70  A    between atoms: _205  and  _206
REMARK   71  A    between atoms: _205  and  _208
REMARK   72  A    between atoms: _208  and  _209
REMARK   73  A    between atoms: _212  and  _214
REMARK   74  A    between atoms: _214  and  _215
REMARK   75  A    between atoms: _214  and  _217
REMARK   76  A    between atoms: _220  and  _222
REMARK   77  A    between atoms: _222  and  _223
REMARK   78  A    between atoms: _222  and  _225
REMARK   79  A    between atoms: _225  and  _226
REMARK   80  A    between atoms: _231  and  _233
REMARK   81  A    between atoms: _233  and  _234
REMARK   82  A    between atoms: _233  and  _236
REMARK   83  A    between atoms: _236  and  _237
REMARK   84  A    between atoms: _243  and  _245
REMARK   85  A    between atoms: _245  and  _246
REMARK   86  A    between atoms: _248  and  _250
REMARK   87  A    between atoms: _250  and  _251
REMARK   88  A    between atoms: _250  and  _253
REMARK   89  A    between atoms: _256  and  _258
REMARK   90  A    between atoms: _258  and  _259
REMARK   91  A    between atoms: _258  and  _261
REMARK   92  A    between atoms: _261  and  _262
REMARK   93  A    between atoms: _262  and  _263
REMARK   94  A    between atoms: _268  and  _270
REMARK   95  A    between atoms: _270  and  _271
REMARK   96  A    between atoms: _270  and  _273
REMARK   97  A    between atoms: _273  and  _274
REMARK   98  A    between atoms: _277  and  _279
REMARK   99  A    between atoms: _279  and  _280
REMARK  100  A    between atoms: _283  and  _285
REMARK  101  A    between atoms: _285  and  _286
REMARK  102  A    between atoms: _285  and  _288
REMARK  103  A    between atoms: _291  and  _293
REMARK  104  A    between atoms: _293  and  _294
REMARK  105  A    between atoms: _293  and  _296
REMARK  106  A    between atoms: _296  and  _297
REMARK  107  A    between atoms: _300  and  _302
REMARK  108  A    between atoms: _302  and  _303
REMARK  109  A    between atoms: _302  and  _305
REMARK  110  A    between atoms: _305  and  _306
REMARK  111  A    between atoms: _308  and  _310
REMARK  112  A    between atoms: _310  and  _311
REMARK  113  A    between atoms: _310  and  _313
REMARK  114  A    between atoms: _313  and  _314
REMARK  115  A    between atoms: _317  and  _319
REMARK  116  A    between atoms: _319  and  _320
REMARK  117  A    between atoms: _319  and  _322
REMARK  118  A    between atoms: _322  and  _323
REMARK  119  A    between atoms: _326  and  _328
REMARK  120  A    between atoms: _328  and  _329
REMARK  121  A    between atoms: _328  and  _331
REMARK  122  A    between atoms: _331  and  _332
REMARK  123  A    between atoms: _336  and  _337
REMARK  124  A    between atoms: _343  and  _344
REMARK  125  A    between atoms: _349  and  _351
REMARK  126  A    between atoms: _351  and  _352
REMARK  127  A    between atoms: _351  and  _354
REMARK  128  A    between atoms: _354  and  _355
REMARK  129  A    between atoms: _358  and  _360
REMARK  130  A    between atoms: _360  and  _361
REMARK  131  A    between atoms: _360  and  _363
REMARK  132  A    between atoms: _363  and  _364
REMARK  133  A    between atoms: _367  and  _369
REMARK  134  A    between atoms: _369  and  _370
REMARK  135  A    between atoms: _369  and  _372
REMARK  136  A    between atoms: _374  and  _376
REMARK  137  A    between atoms: _376  and  _377
REMARK  138  A    between atoms: _376  and  _379
REMARK  139  A    between atoms: _382  and  _384
REMARK  140  A    between atoms: _384  and  _385
REMARK  141  A    between atoms: _384  and  _387
REMARK  142  A    between atoms: _387  and  _388
REMARK  143  A    between atoms: _398  and  _400
REMARK  144  A    between atoms: _400  and  _401
REMARK  145  A    between atoms: _400  and  _403
REMARK  146  A    between atoms: _403  and  _404
REMARK  147  A    between atoms: _409  and  _411
REMARK  148  A    between atoms: _411  and  _412
REMARK  149  A    between atoms: _411  and  _414
REMARK  150  A    between atoms: _414  and  _415
REMARK  151  A    between atoms: _415  and  _416
REMARK  152  A    between atoms: _416  and  _417
REMARK                            x       y       z     vdW  Elec       q    Type
REMARK                         _______ _______ _______ _____ _____    ______ ____
ROOT
ATOM      1  CG  TRP A   1       5.450   0.052  12.290  0.00  0.00    -0.002 A 
ATOM      2  CD2 TRP A   1       4.113  -0.474  12.216  0.00  0.00    +0.013 A 
ATOM      3  CE3 TRP A   1       3.550  -1.740  12.447  0.00  0.00    +0.001 A 
ATOM      4  CZ3 TRP A   1       2.174  -1.899  12.280  0.00  0.00    +0.000 A 
ATOM      5  CH2 TRP A   1       1.359  -0.818  11.887  0.00  0.00    +0.001 A 
ATOM      6  CZ2 TRP A   1       1.887   0.431  11.654  0.00  0.00    +0.017 A 
ATOM      7  CE2 TRP A   1       3.266   0.590  11.823  0.00  0.00    +0.056 A 
ATOM      8  NE1 TRP A   1       4.051   1.703  11.673  0.00  0.00    -0.352 N 
ATOM      9  HE1 TRP A   1       3.713   2.646  11.393  0.00  0.00    +0.166 HD
ATOM     10  CD1 TRP A   1       5.360   1.373  11.952  0.00  0.00    +0.068 A 
ENDROOT
BRANCH   1  11
ATOM     11  CB  TRP A   1       6.692  -0.697  12.676  0.00  0.00    +0.053 C 
BRANCH  11  12
ATOM     12  CA  TRP A   1       7.429  -1.353  11.503  0.00  0.00    +0.137 C 
BRANCH  12  13
ATOM     13  N   TRP A   1       8.076  -0.348  10.673  0.00  0.00    -0.239 NA
ATOM     14  H   TRP A   1       7.932   0.659  10.889  0.00  0.00    +0.142 HD
ENDBRANCH  12  13
BRANCH  12  15
ATOM     15  C   TRP A   1       6.466  -2.175  10.660  0.00  0.00    +0.224 C 
ATOM     16  O   TRP A   1       6.041  -1.750   9.586  0.00  0.00    -0.287 OA
ENDBRANCH  12  15
ENDBRANCH  11  12
ENDBRANCH   1  11
TORSDOF 4
REMARK  Name = ../refined-set-2016/1bnv/1bnv_pocket.pdb
REMARK  152 active torsions:
REMARK  status: ('A' for Active; 'I' for Inactive)
REMARK    1  A    between atoms: _1  and  _3
REMARK    2  A    between atoms: _3  and  _4
REMARK    3  A    between atoms: _3  and  _6
REMARK    4  A    between atoms: _6  and  _7
REMARK    5  A    between atoms: _17  and  _19
REMARK    6  A    between atoms: _19  and  _20
REMARK    7  A    between atoms: _19  and  _22
REMARK    8  A    between atoms: _22  and  _23
REMARK    9  A    between atoms: _28  and  _29
REMARK   10  A    between atoms: _31  and  _33
REMARK   11  A    between atoms: _33  and  _34
REMARK   12  A    between atoms: _33  and  _36
REMARK   13  A    between atoms: _36  and  _37
REMARK   14  A    between atoms: _40  and  _41
REMARK   15  A    between atoms: _46  and  _48
REMARK   16  A    between atoms: _48  and  _49
REMARK   17  A    between atoms: _48  and  _51
REMARK   18  A    between atoms: _51  and  _52
REMARK   19  A    between atoms: _57  and  _59
REMARK   20  A    between atoms: _59  and  _60
REMARK   21  A    between atoms: _59  and  _62
REMARK   22  A    between atoms: _62  and  _63
REMARK   23  A    between atoms: _68  and  _70
REMARK   24  A    between atoms: _70  and  _71
REMARK   25  A    between atoms: _74  and  _76
REMARK   26  A    between atoms: _76  and  _77
REMARK   27  A    between atoms: _76  and  _79
REMARK   28  A    between atoms: _79  and  _80
REMARK   29  A    between atoms: _85  and  _87
REMARK   30  A    between atoms: _87  and  _88
REMARK   31  A    between atoms: _87  and  _90
REMARK   32  A    between atoms: _90  and  _91
REMARK   33  A    between atoms: _94  and  _96
REMARK   34  A    between atoms: _96  and  _97
REMARK   35  A    between atoms: _96  and  _99
REMARK   36  A    between atoms: _99  and  _100
REMARK   37  A    between atoms: _100  and  _101
REMARK   38  A    between atoms: _106  and  _108
REMARK   39  A    between atoms: _108  and  _109
REMARK   40  A    between atoms: _108  and  _111
REMARK   41  A    between atoms: _111  and  _112
REMARK   42  A    between atoms: _118  and  _120
REMARK   43  A    between atoms: _131  and  _134
REMARK   44  A    between atoms: _134  and  _135
REMARK   45  A    between atoms: _143  and  _144
REMARK   46  A    between atoms: _152  and  _154
REMARK   47  A    between atoms: _154  and  _155
REMARK   48  A    between atoms: _154  and  _157
REMARK   49  A    between atoms: _157  and  _158
REMARK   50  A    between atoms: _158  and  _159
REMARK   51  A    between atoms: _162  and  _164
REMARK   52  A    between atoms: _164  and  _165
REMARK   53  A    between atoms: _164  and  _167
REMARK   54  A    between atoms: _167  and  _168
REMARK   55  A    between atoms: _173  and  _175
REMARK   56  A    between atoms: _175  and  _176
REMARK   57  A    between atoms: _175  and  _178
REMARK   58  A    between atoms: _178  and  _179
REMARK   59  A    between atoms: _179  and  _180
REMARK   60  A    between atoms: _183  and  _185
REMARK   61  A    between atoms: _185  and  _186
REMARK   62  A    between atoms: _185  and  _188
REMARK   63  A    between atoms: _188  and  _189
REMARK   64  A    between atoms: _192  and  _194
REMARK   65  A    between atoms: _194  and  _195
REMARK   66  A    between atoms: _194  and  _197
REMARK   67  A    between atoms: _197  and  _198
REMARK   68  A    between atoms: _199  and  ZN_426
REMARK   69  A    between atoms: _203  and  _205
REMARK   70  A    between atoms: _205  and  _206
REMARK   71  A    between atoms: _205  and  _208
REMARK   72  A    between atoms: _208  and  _209
REMARK   73  A    between atoms: _212  and  _214
REMARK   74  A    between atoms: _214  and  _215
REMARK   75  A    between atoms: _214  and  _217
REMARK   76  A    between atoms: _220  and  _222
REMARK   77  A    between atoms: _222  and  _223
REMARK   78  A    between atoms: _222  and  _225
REMARK   79  A    between atoms: _225  and  _226
REMARK   80  A    between atoms: _231  and  _233
REMARK   81  A    between atoms: _233  and  _234
REMARK   82  A    between atoms: _233  and  _236
REMARK   83  A    between atoms: _236  and  _237
REMARK   84  A    between atoms: _243  and  _245
REMARK   85  A    between atoms: _245  and  _246
REMARK   86  A    between atoms: _248  and  _250
REMARK   87  A    between atoms: _250  and  _251
REMARK   88  A    between atoms: _250  and  _253
REMARK   89  A    between atoms: _256  and  _258
REMARK   90  A    between atoms: _258  and  _259
REMARK   91  A    between atoms: _258  and  _261
REMARK   92  A    between atoms: _261  and  _262
REMARK   93  A    between atoms: _262  and  _263
REMARK   94  A    between atoms: _268  and  _270
REMARK   95  A    between atoms: _270  and  _271
REMARK   96  A    between atoms: _270  and  _273
REMARK   97  A    between atoms: _273  and  _274
REMARK   98  A    between atoms: _277  and  _279
REMARK   99  A    between atoms: _279  and  _280
REMARK  100  A    between atoms: _283  and  _285
REMARK  101  A    between atoms: _285  and  _286
REMARK  102  A    between atoms: _285  and  _288
REMARK  103  A    between atoms: _291  and  _293
REMARK  104  A    between atoms: _293  and  _294
REMARK  105  A    between atoms: _293  and  _296
REMARK  106  A    between atoms: _296  and  _297
REMARK  107  A    between atoms: _300  and  _302
REMARK  108  A    between atoms: _302  and  _303
REMARK  109  A    between atoms: _302  and  _305
REMARK  110  A    between atoms: _305  and  _306
REMARK  111  A    between atoms: _308  and  _310
REMARK  112  A    between atoms: _310  and  _311
REMARK  113  A    between atoms: _310  and  _313
REMARK  114  A    between atoms: _313  and  _314
REMARK  115  A    between atoms: _317  and  _319
REMARK  116  A    between atoms: _319  and  _320
REMARK  117  A    between atoms: _319  and  _322
REMARK  118  A    between atoms: _322  and  _323
REMARK  119  A    between atoms: _326  and  _328
REMARK  120  A    between atoms: _328  and  _329
REMARK  121  A    between atoms: _328  and  _331
REMARK  122  A    between atoms: _331  and  _332
REMARK  123  A    between atoms: _336  and  _337
REMARK  124  A    between atoms: _343  and  _344
REMARK  125  A    between atoms: _349  and  _351
REMARK  126  A    between atoms: _351  and  _352
REMARK  127  A    between atoms: _351  and  _354
REMARK  128  A    between atoms: _354  and  _355
REMARK  129  A    between atoms: _358  and  _360
REMARK  130  A    between atoms: _360  and  _361
REMARK  131  A    between atoms: _360  and  _363
REMARK  132  A    between atoms: _363  and  _364
REMARK  133  A    between atoms: _367  and  _369
REMARK  134  A    between atoms: _369  and  _370
REMARK  135  A    between atoms: _369  and  _372
REMARK  136  A    between atoms: _374  and  _376
REMARK  137  A    between atoms: _376  and  _377
REMARK  138  A    between atoms: _376  and  _379
REMARK  139  A    between atoms: _382  and  _384
REMARK  140  A    between atoms: _384  and  _385
REMARK  141  A    between atoms: _384  and  _387
REMARK  142  A    between atoms: _387  and  _388
REMARK  143  A    between atoms: _398  and  _400
REMARK  144  A    between atoms: _400  and  _401
REMARK  145  A    between atoms: _400  and  _403
REMARK  146  A    between atoms: _403  and  _404
REMARK  147  A    between atoms: _409  and  _411
REMARK  148  A    between atoms: _411  and  _412
REMARK  149  A    between atoms: _411  and  _414
REMARK  150  A    between atoms: _414  and  _415
REMARK  151  A    between atoms: _415  and  _416
REMARK  152  A    between atoms: _416  and  _417
REMARK                            x       y       z     vdW  Elec       q    Type
REMARK                         _______ _______ _______ _____ _____    ______ ____
ROOT
ATOM      1  CG  TYR A   1       1.931  -7.009  12.011  0.00  0.00    -0.020 A 
ATOM      2  CD2 TYR A   1       1.577  -6.891  13.356  0.00  0.00    -0.001 A 
ATOM      3  CE2 TYR A   1       0.774  -5.841  13.803  0.00  0.00    +0.036 A 
ATOM      4  CZ  TYR A   1       0.315  -4.897  12.899  0.00  0.00    +0.134 A 
ATOM      5  CE1 TYR A   1       0.648  -4.995  11.547  0.00  0.00    +0.036 A 
ATOM      6  CD1 TYR A   1       1.453  -6.050  11.112  0.00  0.00    -0.001 A 
ENDROOT
BRANCH   4   7
ATOM      7  OH  TYR A   1      -0.453  -3.847  13.357  0.00  0.00    -0.506 OA
ATOM      8  HH  TYR A   1      -0.588  -3.940  14.333  0.00  0.00    +0.292 HD
ENDBRANCH   4   7
BRANCH   1   9
ATOM      9  CB  TYR A   1       2.868  -8.102  11.555  0.00  0.00    +0.051 C 
BRANCH   9  10
ATOM     10  CA  TYR A   1       4.348  -7.729  11.727  0.00  0.00    +0.137 C 
BRANCH  10  11
ATOM     11  N   TYR A   1       4.665  -6.572  10.902  0.00  0.00    -0.239 NA
ATOM     12  H   TYR A   1       4.671  -6.673   9.867  0.00  0.00    +0.142 HD
ENDBRANCH  10  11
BRANCH  10  13
ATOM     13  C   TYR A   1       5.222  -8.916  11.398  0.00  0.00    +0.224 C 
ATOM     14  O   TYR A   1       4.858 -10.049  11.674  0.00  0.00    -0.287 OA
ENDBRANCH  10  13
ENDBRANCH   9  10
ENDBRANCH   1   9
TORSDOF 5
REMARK  Name = ../refined-set-2016/1bnv/1bnv_pocket.pdb
REMARK  152 active torsions:
REMARK  status: ('A' for Active; 'I' for Inactive)
REMARK    1  A    between atoms: _1  and  _3
REMARK    2  A    between atoms: _3  and  _4
REMARK    3  A    between atoms: _3  and  _6
REMARK    4  A    between atoms: _6  and  _7
REMARK    5  A    between atoms: _17  and  _19
REMARK    6  A    between atoms: _19  and  _20
REMARK    7  A    between atoms: _19  and  _22
REMARK    8  A    between atoms: _22  and  _23
REMARK    9  A    between atoms: _28  and  _29
REMARK   10  A    between atoms: _31  and  _33
REMARK   11  A    between atoms: _33  and  _34
REMARK   12  A    between atoms: _33  and  _36
REMARK   13  A    between atoms: _36  and  _37
REMARK   14  A    between atoms: _40  and  _41
REMARK   15  A    between atoms: _46  and  _48
REMARK   16  A    between atoms: _48  and  _49
REMARK   17  A    between atoms: _48  and  _51
REMARK   18  A    between atoms: _51  and  _52
REMARK   19  A    between atoms: _57  and  _59
REMARK   20  A    between atoms: _59  and  _60
REMARK   21  A    between atoms: _59  and  _62
REMARK   22  A    between atoms: _62  and  _63
REMARK   23  A    between atoms: _68  and  _70
REMARK   24  A    between atoms: _70  and  _71
REMARK   25  A    between atoms: _74  and  _76
REMARK   26  A    between atoms: _76  and  _77
REMARK   27  A    between atoms: _76  and  _79
REMARK   28  A    between atoms: _79  and  _80
REMARK   29  A    between atoms: _85  and  _87
REMARK   30  A    between atoms: _87  and  _88
REMARK   31  A    between atoms: _87  and  _90
REMARK   32  A    between atoms: _90  and  _91
REMARK   33  A    between atoms: _94  and  _96
REMARK   34  A    between atoms: _96  and  _97
REMARK   35  A    between atoms: _96  and  _99
REMARK   36  A    between atoms: _99  and  _100
REMARK   37  A    between atoms: _100  and  _101
REMARK   38  A    between atoms: _106  and  _108
REMARK   39  A    between atoms: _108  and  _109
REMARK   40  A    between atoms: _108  and  _111
REMARK   41  A    between atoms: _111  and  _112
REMARK   42  A    between atoms: _118  and  _120
REMARK   43  A    between atoms: _131  and  _134
REMARK   44  A    between atoms: _134  and  _135
REMARK   45  A    between atoms: _143  and  _144
REMARK   46  A    between atoms: _152  and  _154
REMARK   47  A    between atoms: _154  and  _155
REMARK   48  A    between atoms: _154  and  _157
REMARK   49  A    between atoms: _157  and  _158
REMARK   50  A    between atoms: _158  and  _159
REMARK   51  A    between atoms: _162  and  _164
REMARK   52  A    between atoms: _164  and  _165
REMARK   53  A    between atoms: _164  and  _167
REMARK   54  A    between atoms: _167  and  _168
REMARK   55  A    between atoms: _173  and  _175
REMARK   56  A    between atoms: _175  and  _176
REMARK   57  A    between atoms: _175  and  _178
REMARK   58  A    between atoms: _178  and  _179
REMARK   59  A    between atoms: _179  and  _180
REMARK   60  A    between atoms: _183  and  _185
REMARK   61  A    between atoms: _185  and  _186
REMARK   62  A    between atoms: _185  and  _188
REMARK   63  A    between atoms: _188  and  _189
REMARK   64  A    between atoms: _192  and  _194
REMARK   65  A    between atoms: _194  and  _195
REMARK   66  A    between atoms: _194  and  _197
REMARK   67  A    between atoms: _197  and  _198
REMARK   68  A    between atoms: _199  and  ZN_426
REMARK   69  A    between atoms: _203  and  _205
REMARK   70  A    between atoms: _205  and  _206
REMARK   71  A    between atoms: _205  and  _208
REMARK   72  A    between atoms: _208  and  _209
REMARK   73  A    between atoms: _212  and  _214
REMARK   74  A    between atoms: _214  and  _215
REMARK   75  A    between atoms: _214  and  _217
REMARK   76  A    between atoms: _220  and  _222
REMARK   77  A    between atoms: _222  and  _223
REMARK   78  A    between atoms: _222  and  _225
REMARK   79  A    between atoms: _225  and  _226
REMARK   80  A    between atoms: _231  and  _233
REMARK   81  A    between atoms: _233  and  _234
REMARK   82  A    between atoms: _233  and  _236
REMARK   83  A    between atoms: _236  and  _237
REMARK   84  A    between atoms: _243  and  _245
REMARK   85  A    between atoms: _245  and  _246
REMARK   86  A    between atoms: _248  and  _250
REMARK   87  A    between atoms: _250  and  _251
REMARK   88  A    between atoms: _250  and  _253
REMARK   89  A    between atoms: _256  and  _258
REMARK   90  A    between atoms: _258  and  _259
REMARK   91  A    between atoms: _258  and  _261
REMARK   92  A    between atoms: _261  and  _262
REMARK   93  A    between atoms: _262  and  _263
REMARK   94  A    between atoms: _268  and  _270
REMARK   95  A    between atoms: _270  and  _271
REMARK   96  A    between atoms: _270  and  _273
REMARK   97  A    between atoms: _273  and  _274
REMARK   98  A    between atoms: _277  and  _279
REMARK   99  A    between atoms: _279  and  _280
REMARK  100  A    between atoms: _283  and  _285
REMARK  101  A    between atoms: _285  and  _286
REMARK  102  A    between atoms: _285  and  _288
REMARK  103  A    between atoms: _291  and  _293
REMARK  104  A    between atoms: _293  and  _294
REMARK  105  A    between atoms: _293  and  _296
REMARK  106  A    between atoms: _296  and  _297
REMARK  107  A    between atoms: _300  and  _302
REMARK  108  A    between atoms: _302  and  _303
REMARK  109  A    between atoms: _302  and  _305
REMARK  110  A    between atoms: _305  and  _306
REMARK  111  A    between atoms: _308  and  _310
REMARK  112  A    between atoms: _310  and  _311
REMARK  113  A    between atoms: _310  and  _313
REMARK  114  A    between atoms: _313  and  _314
REMARK  115  A    between atoms: _317  and  _319
REMARK  116  A    between atoms: _319  and  _320
REMARK  117  A    between atoms: _319  and  _322
REMARK  118  A    between atoms: _322  and  _323
REMARK  119  A    between atoms: _326  and  _328
REMARK  120  A    between atoms: _328  and  _329
REMARK  121  A    between atoms: _328  and  _331
REMARK  122  A    between atoms: _331  and  _332
REMARK  123  A    between atoms: _336  and  _337
REMARK  124  A    between atoms: _343  and  _344
REMARK  125  A    between atoms: _349  and  _351
REMARK  126  A    between atoms: _351  and  _352
REMARK  127  A    between atoms: _351  and  _354
REMARK  128  A    between atoms: _354  and  _355
REMARK  129  A    between atoms: _358  and  _360
REMARK  130  A    between atoms: _360  and  _361
REMARK  131  A    between atoms: _360  and  _363
REMARK  132  A    between atoms: _363  and  _364
REMARK  133  A    between atoms: _367  and  _369
REMARK  134  A    between atoms: _369  and  _370
REMARK  135  A    between atoms: _369  and  _372
REMARK  136  A    between atoms: _374  and  _376
REMARK  137  A    between atoms: _376  and  _377
REMARK  138  A    between atoms: _376  and  _379
REMARK  139  A    between atoms: _382  and  _384
REMARK  140  A    between atoms: _384  and  _385
REMARK  141  A    between atoms: _384  and  _387
REMARK  142  A    between atoms: _387  and  _388
REMARK  143  A    between atoms: _398  and  _400
REMARK  144  A    between atoms: _400  and  _401
REMARK  145  A    between atoms: _400  and  _403
REMARK  146  A    between atoms: _403  and  _404
REMARK  147  A    between atoms: _409  and  _411
REMARK  148  A    between atoms: _411  and  _412
REMARK  149  A    between atoms: _411  and  _414
REMARK  150  A    between atoms: _414  and  _415
REMARK  151  A    between atoms: _415  and  _416
REMARK  152  A    between atoms: _416  and  _417
REMARK                            x       y       z     vdW  Elec       q    Type
REMARK                         _______ _______ _______ _____ _____    ______ ____
ROOT
ATOM      1  C   SER A   1      -2.524  -3.229  23.535  0.00  0.00    +0.244 C 
ATOM      2  N   PRO A   2      -3.117  -4.401  23.246  0.00  0.00    -0.273 N 
ATOM      3  CA  PRO A   2      -4.308  -4.918  23.930  0.00  0.00    +0.140 C 
ATOM      4  CB  PRO A   2      -4.872  -5.897  22.910  0.00  0.00    +0.030 C 
ATOM      5  CG  PRO A   2      -3.613  -6.530  22.383  0.00  0.00    +0.024 C 
ATOM      6  CD  PRO A   2      -2.649  -5.349  22.218  0.00  0.00    +0.094 C 
ATOM      7  O   SER A   1      -1.581  -2.801  22.876  0.00  0.00    -0.273 OA
ENDROOT
BRANCH   3   8
ATOM      8  C   PRO A   2      -3.886  -5.618  25.209  0.00  0.00    +0.227 C 
ATOM      9  O   PRO A   2      -2.697  -5.683  25.514  0.00  0.00    -0.286 OA
ENDBRANCH   3   8
BRANCH   1  10
ATOM     10  CA  SER A   1      -3.135  -2.382  24.657  0.00  0.00    +0.175 C 
BRANCH  10  11
ATOM     11  N   SER A   1      -2.133  -1.409  25.076  0.00  0.00    -0.236 NA
ATOM     12  H   SER A   1      -1.741  -0.759  24.365  0.00  0.00    +0.142 HD
ENDBRANCH  10  11
BRANCH  10  13
ATOM     13  CB  SER A   1      -4.379  -1.661  24.145  0.00  0.00    +0.163 C 
BRANCH  13  14
ATOM     14  OG  SER A   1      -4.787  -0.666  25.067  0.00  0.00    -0.380 OA
ATOM     15  H   SER A   1      -4.994  -1.089  25.938  0.00  0.00    +0.211 HD
ENDBRANCH  13  14
ENDBRANCH  10  13
ENDBRANCH   1  10
TORSDOF 5
REMARK  Name = ../refined-set-2016/1bnv/1bnv_pocket.pdb
REMARK  152 active torsions:
REMARK  status: ('A' for Active; 'I' for Inactive)
REMARK    1  A    between atoms: _1  and  _3
REMARK    2  A    between atoms: _3  and  _4
REMARK    3  A    between atoms: _3  and  _6
REMARK    4  A    between atoms: _6  and  _7
REMARK    5  A    between atoms: _17  and  _19
REMARK    6  A    between atoms: _19  and  _20
REMARK    7  A    between atoms: _19  and  _22
REMARK    8  A    between atoms: _22  and  _23
REMARK    9  A    between atoms: _28  and  _29
REMARK   10  A    between atoms: _31  and  _33
REMARK   11  A    between atoms: _33  and  _34
REMARK   12  A    between atoms: _33  and  _36
REMARK   13  A    between atoms: _36  and  _37
REMARK   14  A    between atoms: _40  and  _41
REMARK   15  A    between atoms: _46  and  _48
REMARK   16  A    between atoms: _48  and  _49
REMARK   17  A    between atoms: _48  and  _51
REMARK   18  A    between atoms: _51  and  _52
REMARK   19  A    between atoms: _57  and  _59
REMARK   20  A    between atoms: _59  and  _60
REMARK   21  A    between atoms: _59  and  _62
REMARK   22  A    between atoms: _62  and  _63
REMARK   23  A    between atoms: _68  and  _70
REMARK   24  A    between atoms: _70  and  _71
REMARK   25  A    between atoms: _74  and  _76
REMARK   26  A    between atoms: _76  and  _77
REMARK   27  A    between atoms: _76  and  _79
REMARK   28  A    between atoms: _79  and  _80
REMARK   29  A    between atoms: _85  and  _87
REMARK   30  A    between atoms: _87  and  _88
REMARK   31  A    between atoms: _87  and  _90
REMARK   32  A    between atoms: _90  and  _91
REMARK   33  A    between atoms: _94  and  _96
REMARK   34  A    between atoms: _96  and  _97
REMARK   35  A    between atoms: _96  and  _99
REMARK   36  A    between atoms: _99  and  _100
REMARK   37  A    between atoms: _100  and  _101
REMARK   38  A    between atoms: _106  and  _108
REMARK   39  A    between atoms: _108  and  _109
REMARK   40  A    between atoms: _108  and  _111
REMARK   41  A    between atoms: _111  and  _112
REMARK   42  A    between atoms: _118  and  _120
REMARK   43  A    between atoms: _131  and  _134
REMARK   44  A    between atoms: _134  and  _135
REMARK   45  A    between atoms: _143  and  _144
REMARK   46  A    between atoms: _152  and  _154
REMARK   47  A    between atoms: _154  and  _155
REMARK   48  A    between atoms: _154  and  _157
REMARK   49  A    between atoms: _157  and  _158
REMARK   50  A    between atoms: _158  and  _159
REMARK   51  A    between atoms: _162  and  _164
REMARK   52  A    between atoms: _164  and  _165
REMARK   53  A    between atoms: _164  and  _167
REMARK   54  A    between atoms: _167  and  _168
REMARK   55  A    between atoms: _173  and  _175
REMARK   56  A    between atoms: _175  and  _176
REMARK   57  A    between atoms: _175  and  _178
REMARK   58  A    between atoms: _178  and  _179
REMARK   59  A    between atoms: _179  and  _180
REMARK   60  A    between atoms: _183  and  _185
REMARK   61  A    between atoms: _185  and  _186
REMARK   62  A    between atoms: _185  and  _188
REMARK   63  A    between atoms: _188  and  _189
REMARK   64  A    between atoms: _192  and  _194
REMARK   65  A    between atoms: _194  and  _195
REMARK   66  A    between atoms: _194  and  _197
REMARK   67  A    between atoms: _197  and  _198
REMARK   68  A    between atoms: _199  and  ZN_426
REMARK   69  A    between atoms: _203  and  _205
REMARK   70  A    between atoms: _205  and  _206
REMARK   71  A    between atoms: _205  and  _208
REMARK   72  A    between atoms: _208  and  _209
REMARK   73  A    between atoms: _212  and  _214
REMARK   74  A    between atoms: _214  and  _215
REMARK   75  A    between atoms: _214  and  _217
REMARK   76  A    between atoms: _220  and  _222
REMARK   77  A    between atoms: _222  and  _223
REMARK   78  A    between atoms: _222  and  _225
REMARK   79  A    between atoms: _225  and  _226
REMARK   80  A    between atoms: _231  and  _233
REMARK   81  A    between atoms: _233  and  _234
REMARK   82  A    between atoms: _233  and  _236
REMARK   83  A    between atoms: _236  and  _237
REMARK   84  A    between atoms: _243  and  _245
REMARK   85  A    between atoms: _245  and  _246
REMARK   86  A    between atoms: _248  and  _250
REMARK   87  A    between atoms: _250  and  _251
REMARK   88  A    between atoms: _250  and  _253
REMARK   89  A    between atoms: _256  and  _258
REMARK   90  A    between atoms: _258  and  _259
REMARK   91  A    between atoms: _258  and  _261
REMARK   92  A    between atoms: _261  and  _262
REMARK   93  A    between atoms: _262  and  _263
REMARK   94  A    between atoms: _268  and  _270
REMARK   95  A    between atoms: _270  and  _271
REMARK   96  A    between atoms: _270  and  _273
REMARK   97  A    between atoms: _273  and  _274
REMARK   98  A    between atoms: _277  and  _279
REMARK   99  A    between atoms: _279  and  _280
REMARK  100  A    between atoms: _283  and  _285
REMARK  101  A    between atoms: _285  and  _286
REMARK  102  A    between atoms: _285  and  _288
REMARK  103  A    between atoms: _291  and  _293
REMARK  104  A    between atoms: _293  and  _294
REMARK  105  A    between atoms: _293  and  _296
REMARK  106  A    between atoms: _296  and  _297
REMARK  107  A    between atoms: _300  and  _302
REMARK  108  A    between atoms: _302  and  _303
REMARK  109  A    between atoms: _302  and  _305
REMARK  110  A    between atoms: _305  and  _306
REMARK  111  A    between atoms: _308  and  _310
REMARK  112  A    between atoms: _310  and  _311
REMARK  113  A    between atoms: _310  and  _313
REMARK  114  A    between atoms: _313  and  _314
REMARK  115  A    between atoms: _317  and  _319
REMARK  116  A    between atoms: _319  and  _320
REMARK  117  A    between atoms: _319  and  _322
REMARK  118  A    between atoms: _322  and  _323
REMARK  119  A    between atoms: _326  and  _328
REMARK  120  A    between atoms: _328  and  _329
REMARK  121  A    between atoms: _328  and  _331
REMARK  122  A    between atoms: _331  and  _332
REMARK  123  A    between atoms: _336  and  _337
REMARK  124  A    between atoms: _343  and  _344
REMARK  125  A    between atoms: _349  and  _351
REMARK  126  A    between atoms: _351  and  _352
REMARK  127  A    between atoms: _351  and  _354
REMARK  128  A    between atoms: _354  and  _355
REMARK  129  A    between atoms: _358  and  _360
REMARK  130  A    between atoms: _360  and  _361
REMARK  131  A    between atoms: _360  and  _363
REMARK  132  A    between atoms: _363  and  _364
REMARK  133  A    between atoms: _367  and  _369
REMARK  134  A    between atoms: _369  and  _370
REMARK  135  A    between atoms: _369  and  _372
REMARK  136  A    between atoms: _374  and  _376
REMARK  137  A    between atoms: _376  and  _377
REMARK  138  A    between atoms: _376  and  _379
REMARK  139  A    between atoms: _382  and  _384
REMARK  140  A    between atoms: _384  and  _385
REMARK  141  A    between atoms: _384  and  _387
REMARK  142  A    between atoms: _387  and  _388
REMARK  143  A    between atoms: _398  and  _400
REMARK  144  A    between atoms: _400  and  _401
REMARK  145  A    between atoms: _400  and  _403
REMARK  146  A    between atoms: _403  and  _404
REMARK  147  A    between atoms: _409  and  _411
REMARK  148  A    between atoms: _411  and  _412
REMARK  149  A    between atoms: _411  and  _414
REMARK  150  A    between atoms: _414  and  _415
REMARK  151  A    between atoms: _415  and  _416
REMARK  152  A    between atoms: _416  and  _417
REMARK                            x       y       z     vdW  Elec       q    Type
REMARK                         _______ _______ _______ _____ _____    ______ ____
ROOT
ATOM      1  CB  ASN A   1      -2.841   2.132   5.318  0.00  0.00    +0.110 C 
ENDROOT
BRANCH   1   2
ATOM      2  CG  ASN A   1      -3.094   1.311   6.568  0.00  0.00    +0.221 C 
ATOM      3  ND2 ASN A   1      -3.276   1.995   7.683  0.00  0.00    -0.329 N 
ATOM      4 HD21 ASN A   1      -3.463   1.495   8.575  0.00  0.00    +0.145 HD
ATOM      5 HD22 ASN A   1      -3.232   3.034   7.669  0.00  0.00    +0.145 HD
ATOM      6  OD1 ASN A   1      -3.136   0.084   6.533  0.00  0.00    -0.275 OA
ENDBRANCH   1   2
BRANCH   1   7
ATOM      7  CA  ASN A   1      -2.394   1.285   4.121  0.00  0.00    +0.142 C 
BRANCH   7   8
ATOM      8  N   ASN A   1      -3.476   0.410   3.659  0.00  0.00    -0.239 NA
ATOM      9  H   ASN A   1      -4.013  -0.149   4.352  0.00  0.00    +0.142 HD
ENDBRANCH   7   8
BRANCH   7  10
ATOM     10  C   ASN A   1      -1.119   0.512   4.456  0.00  0.00    +0.225 C 
ATOM     11  O   ASN A   1      -0.198   1.047   5.082  0.00  0.00    -0.287 OA
ENDBRANCH   7  10
ENDBRANCH   1   7
TORSDOF 4
REMARK  Name = ../refined-set-2016/1bnv/1bnv_pocket.pdb
REMARK  152 active torsions:
REMARK  status: ('A' for Active; 'I' for Inactive)
REMARK    1  A    between atoms: _1  and  _3
REMARK    2  A    between atoms: _3  and  _4
REMARK    3  A    between atoms: _3  and  _6
REMARK    4  A    between atoms: _6  and  _7
REMARK    5  A    between atoms: _17  and  _19
REMARK    6  A    between atoms: _19  and  _20
REMARK    7  A    between atoms: _19  and  _22
REMARK    8  A    between atoms: _22  and  _23
REMARK    9  A    between atoms: _28  and  _29
REMARK   10  A    between atoms: _31  and  _33
REMARK   11  A    between atoms: _33  and  _34
REMARK   12  A    between atoms: _33  and  _36
REMARK   13  A    between atoms: _36  and  _37
REMARK   14  A    between atoms: _40  and  _41
REMARK   15  A    between atoms: _46  and  _48
REMARK   16  A    between atoms: _48  and  _49
REMARK   17  A    between atoms: _48  and  _51
REMARK   18  A    between atoms: _51  and  _52
REMARK   19  A    between atoms: _57  and  _59
REMARK   20  A    between atoms: _59  and  _60
REMARK   21  A    between atoms: _59  and  _62
REMARK   22  A    between atoms: _62  and  _63
REMARK   23  A    between atoms: _68  and  _70
REMARK   24  A    between atoms: _70  and  _71
REMARK   25  A    between atoms: _74  and  _76
REMARK   26  A    between atoms: _76  and  _77
REMARK   27  A    between atoms: _76  and  _79
REMARK   28  A    between atoms: _79  and  _80
REMARK   29  A    between atoms: _85  and  _87
REMARK   30  A    between atoms: _87  and  _88
REMARK   31  A    between atoms: _87  and  _90
REMARK   32  A    between atoms: _90  and  _91
REMARK   33  A    between atoms: _94  and  _96
REMARK   34  A    between atoms: _96  and  _97
REMARK   35  A    between atoms: _96  and  _99
REMARK   36  A    between atoms: _99  and  _100
REMARK   37  A    between atoms: _100  and  _101
REMARK   38  A    between atoms: _106  and  _108
REMARK   39  A    between atoms: _108  and  _109
REMARK   40  A    between atoms: _108  and  _111
REMARK   41  A    between atoms: _111  and  _112
REMARK   42  A    between atoms: _118  and  _120
REMARK   43  A    between atoms: _131  and  _134
REMARK   44  A    between atoms: _134  and  _135
REMARK   45  A    between atoms: _143  and  _144
REMARK   46  A    between atoms: _152  and  _154
REMARK   47  A    between atoms: _154  and  _155
REMARK   48  A    between atoms: _154  and  _157
REMARK   49  A    between atoms: _157  and  _158
REMARK   50  A    between atoms: _158  and  _159
REMARK   51  A    between atoms: _162  and  _164
REMARK   52  A    between atoms: _164  and  _165
REMARK   53  A    between atoms: _164  and  _167
REMARK   54  A    between atoms: _167  and  _168
REMARK   55  A    between atoms: _173  and  _175
REMARK   56  A    between atoms: _175  and  _176
REMARK   57  A    between atoms: _175  and  _178
REMARK   58  A    between atoms: _178  and  _179
REMARK   59  A    between atoms: _179  and  _180
REMARK   60  A    between atoms: _183  and  _185
REMARK   61  A    between atoms: _185  and  _186
REMARK   62  A    between atoms: _185  and  _188
REMARK   63  A    between atoms: _188  and  _189
REMARK   64  A    between atoms: _192  and  _194
REMARK   65  A    between atoms: _194  and  _195
REMARK   66  A    between atoms: _194  and  _197
REMARK   67  A    between atoms: _197  and  _198
REMARK   68  A    between atoms: _199  and  ZN_426
REMARK   69  A    between atoms: _203  and  _205
REMARK   70  A    between atoms: _205  and  _206
REMARK   71  A    between atoms: _205  and  _208
REMARK   72  A    between atoms: _208  and  _209
REMARK   73  A    between atoms: _212  and  _214
REMARK   74  A    between atoms: _214  and  _215
REMARK   75  A    between atoms: _214  and  _217
REMARK   76  A    between atoms: _220  and  _222
REMARK   77  A    between atoms: _222  and  _223
REMARK   78  A    between atoms: _222  and  _225
REMARK   79  A    between atoms: _225  and  _226
REMARK   80  A    between atoms: _231  and  _233
REMARK   81  A    between atoms: _233  and  _234
REMARK   82  A    between atoms: _233  and  _236
REMARK   83  A    between atoms: _236  and  _237
REMARK   84  A    between atoms: _243  and  _245
REMARK   85  A    between atoms: _245  and  _246
REMARK   86  A    between atoms: _248  and  _250
REMARK   87  A    between atoms: _250  and  _251
REMARK   88  A    between atoms: _250  and  _253
REMARK   89  A    between atoms: _256  and  _258
REMARK   90  A    between atoms: _258  and  _259
REMARK   91  A    between atoms: _258  and  _261
REMARK   92  A    between atoms: _261  and  _262
REMARK   93  A    between atoms: _262  and  _263
REMARK   94  A    between atoms: _268  and  _270
REMARK   95  A    between atoms: _270  and  _271
REMARK   96  A    between atoms: _270  and  _273
REMARK   97  A    between atoms: _273  and  _274
REMARK   98  A    between atoms: _277  and  _279
REMARK   99  A    between atoms: _279  and  _280
REMARK  100  A    between atoms: _283  and  _285
REMARK  101  A    between atoms: _285  and  _286
REMARK  102  A    between atoms: _285  and  _288
REMARK  103  A    between atoms: _291  and  _293
REMARK  104  A    between atoms: _293  and  _294
REMARK  105  A    between atoms: _293  and  _296
REMARK  106  A    between atoms: _296  and  _297
REMARK  107  A    between atoms: _300  and  _302
REMARK  108  A    between atoms: _302  and  _303
REMARK  109  A    between atoms: _302  and  _305
REMARK  110  A    between atoms: _305  and  _306
REMARK  111  A    between atoms: _308  and  _310
REMARK  112  A    between atoms: _310  and  _311
REMARK  113  A    between atoms: _310  and  _313
REMARK  114  A    between atoms: _313  and  _314
REMARK  115  A    between atoms: _317  and  _319
REMARK  116  A    between atoms: _319  and  _320
REMARK  117  A    between atoms: _319  and  _322
REMARK  118  A    between atoms: _322  and  _323
REMARK  119  A    between atoms: _326  and  _328
REMARK  120  A    between atoms: _328  and  _329
REMARK  121  A    between atoms: _328  and  _331
REMARK  122  A    between atoms: _331  and  _332
REMARK  123  A    between atoms: _336  and  _337
REMARK  124  A    between atoms: _343  and  _344
REMARK  125  A    between atoms: _349  and  _351
REMARK  126  A    between atoms: _351  and  _352
REMARK  127  A    between atoms: _351  and  _354
REMARK  128  A    between atoms: _354  and  _355
REMARK  129  A    between atoms: _358  and  _360
REMARK  130  A    between atoms: _360  and  _361
REMARK  131  A    between atoms: _360  and  _363
REMARK  132  A    between atoms: _363  and  _364
REMARK  133  A    between atoms: _367  and  _369
REMARK  134  A    between atoms: _369  and  _370
REMARK  135  A    between atoms: _369  and  _372
REMARK  136  A    between atoms: _374  and  _376
REMARK  137  A    between atoms: _376  and  _377
REMARK  138  A    between atoms: _376  and  _379
REMARK  139  A    between atoms: _382  and  _384
REMARK  140  A    between atoms: _384  and  _385
REMARK  141  A    between atoms: _384  and  _387
REMARK  142  A    between atoms: _387  and  _388
REMARK  143  A    between atoms: _398  and  _400
REMARK  144  A    between atoms: _400  and  _401
REMARK  145  A    between atoms: _400  and  _403
REMARK  146  A    between atoms: _403  and  _404
REMARK  147  A    between atoms: _409  and  _411
REMARK  148  A    between atoms: _411  and  _412
REMARK  149  A    between atoms: _411  and  _414
REMARK  150  A    between atoms: _414  and  _415
REMARK  151  A    between atoms: _415  and  _416
REMARK  152  A    between atoms: _416  and  _417
REMARK                            x       y       z     vdW  Elec       q    Type
REMARK                         _______ _______ _______ _____ _____    ______ ____
ROOT
ATOM      1  CA  HIS A   1      -1.032  -2.584   7.766  0.00  0.00    +0.151 C 
ENDROOT
BRANCH   1   2
ATOM      2  C   HIS A   1      -2.406  -3.243   7.819  0.00  0.00    +0.239 C 
ATOM      3  O   HIS A   1      -2.620  -4.219   8.553  0.00  0.00    -0.274 OA
ATOM      4  N   ALA A   2      -3.352  -2.678   7.075  0.00  0.00    -0.298 N 
ATOM      5  H   ALA A   2      -3.119  -1.830   6.519  0.00  0.00    +0.150 HD
BRANCH   4   6
ATOM      6  CA  ALA A   2      -4.706  -3.213   7.016  0.00  0.00    +0.137 C 
ATOM      7  CB  ALA A   2      -5.328  -3.229   8.420  0.00  0.00    +0.030 C 
BRANCH   6   8
ATOM      8  C   ALA A   2      -5.532  -2.342   6.093  0.00  0.00    +0.227 C 
ATOM      9  O   ALA A   2      -5.039  -1.358   5.555  0.00  0.00    -0.286 OA
ENDBRANCH   6   8
ENDBRANCH   4   6
ENDBRANCH   1   2
BRANCH   1  10
ATOM     10  N   HIS A   1      -0.859  -1.912   6.475  0.00  0.00    -0.238 NA
ATOM     11  H   HIS A   1      -1.420  -1.060   6.273  0.00  0.00    +0.142 HD
ENDBRANCH   1  10
BRANCH   1  12
ATOM     12  CB  HIS A   1      -0.911  -1.583   8.921  0.00  0.00    +0.074 C 
BRANCH  12  13
ATOM     13  CG  HIS A   1       0.150  -0.543   8.680  0.00  0.00    +0.082 A 
ATOM     14  CD2 HIS A   1       0.131   0.861   8.481  0.00  0.00    +0.115 A 
ATOM     15  NE2 HIS A   1       1.392   1.232   8.069  0.00  0.00    -0.221 NA
ATOM     16  CE1 HIS A   1       2.171   0.117   8.018  0.00  0.00    +0.199 A 
ATOM     17  ND1 HIS A   1       1.392  -0.943   8.397  0.00  0.00    -0.227 NA
ENDBRANCH  12  13
ENDBRANCH   1  12
TORSDOF 6
REMARK  Name = ../refined-set-2016/1bnv/1bnv_pocket.pdb
REMARK  152 active torsions:
REMARK  status: ('A' for Active; 'I' for Inactive)
REMARK    1  A    between atoms: _1  and  _3
REMARK    2  A    between atoms: _3  and  _4
REMARK    3  A    between atoms: _3  and  _6
REMARK    4  A    between atoms: _6  and  _7
REMARK    5  A    between atoms: _17  and  _19
REMARK    6  A    between atoms: _19  and  _20
REMARK    7  A    between atoms: _19  and  _22
REMARK    8  A    between atoms: _22  and  _23
REMARK    9  A    between atoms: _28  and  _29
REMARK   10  A    between atoms: _31  and  _33
REMARK   11  A    between atoms: _33  and  _34
REMARK   12  A    between atoms: _33  and  _36
REMARK   13  A    between atoms: _36  and  _37
REMARK   14  A    between atoms: _40  and  _41
REMARK   15  A    between atoms: _46  and  _48
REMARK   16  A    between atoms: _48  and  _49
REMARK   17  A    between atoms: _48  and  _51
REMARK   18  A    between atoms: _51  and  _52
REMARK   19  A    between atoms: _57  and  _59
REMARK   20  A    between atoms: _59  and  _60
REMARK   21  A    between atoms: _59  and  _62
REMARK   22  A    between atoms: _62  and  _63
REMARK   23  A    between atoms: _68  and  _70
REMARK   24  A    between atoms: _70  and  _71
REMARK   25  A    between atoms: _74  and  _76
REMARK   26  A    between atoms: _76  and  _77
REMARK   27  A    between atoms: _76  and  _79
REMARK   28  A    between atoms: _79  and  _80
REMARK   29  A    between atoms: _85  and  _87
REMARK   30  A    between atoms: _87  and  _88
REMARK   31  A    between atoms: _87  and  _90
REMARK   32  A    between atoms: _90  and  _91
REMARK   33  A    between atoms: _94  and  _96
REMARK   34  A    between atoms: _96  and  _97
REMARK   35  A    between atoms: _96  and  _99
REMARK   36  A    between atoms: _99  and  _100
REMARK   37  A    between atoms: _100  and  _101
REMARK   38  A    between atoms: _106  and  _108
REMARK   39  A    between atoms: _108  and  _109
REMARK   40  A    between atoms: _108  and  _111
REMARK   41  A    between atoms: _111  and  _112
REMARK   42  A    between atoms: _118  and  _120
REMARK   43  A    between atoms: _131  and  _134
REMARK   44  A    between atoms: _134  and  _135
REMARK   45  A    between atoms: _143  and  _144
REMARK   46  A    between atoms: _152  and  _154
REMARK   47  A    between atoms: _154  and  _155
REMARK   48  A    between atoms: _154  and  _157
REMARK   49  A    between atoms: _157  and  _158
REMARK   50  A    between atoms: _158  and  _159
REMARK   51  A    between atoms: _162  and  _164
REMARK   52  A    between atoms: _164  and  _165
REMARK   53  A    between atoms: _164  and  _167
REMARK   54  A    between atoms: _167  and  _168
REMARK   55  A    between atoms: _173  and  _175
REMARK   56  A    between atoms: _175  and  _176
REMARK   57  A    between atoms: _175  and  _178
REMARK   58  A    between atoms: _178  and  _179
REMARK   59  A    between atoms: _179  and  _180
REMARK   60  A    between atoms: _183  and  _185
REMARK   61  A    between atoms: _185  and  _186
REMARK   62  A    between atoms: _185  and  _188
REMARK   63  A    between atoms: _188  and  _189
REMARK   64  A    between atoms: _192  and  _194
REMARK   65  A    between atoms: _194  and  _195
REMARK   66  A    between atoms: _194  and  _197
REMARK   67  A    between atoms: _197  and  _198
REMARK   68  A    between atoms: _199  and  ZN_426
REMARK   69  A    between atoms: _203  and  _205
REMARK   70  A    between atoms: _205  and  _206
REMARK   71  A    between atoms: _205  and  _208
REMARK   72  A    between atoms: _208  and  _209
REMARK   73  A    between atoms: _212  and  _214
REMARK   74  A    between atoms: _214  and  _215
REMARK   75  A    between atoms: _214  and  _217
REMARK   76  A    between atoms: _220  and  _222
REMARK   77  A    between atoms: _222  and  _223
REMARK   78  A    between atoms: _222  and  _225
REMARK   79  A    between atoms: _225  and  _226
REMARK   80  A    between atoms: _231  and  _233
REMARK   81  A    between atoms: _233  and  _234
REMARK   82  A    between atoms: _233  and  _236
REMARK   83  A    between atoms: _236  and  _237
REMARK   84  A    between atoms: _243  and  _245
REMARK   85  A    between atoms: _245  and  _246
REMARK   86  A    between atoms: _248  and  _250
REMARK   87  A    between atoms: _250  and  _251
REMARK   88  A    between atoms: _250  and  _253
REMARK   89  A    between atoms: _256  and  _258
REMARK   90  A    between atoms: _258  and  _259
REMARK   91  A    between atoms: _258  and  _261
REMARK   92  A    between atoms: _261  and  _262
REMARK   93  A    between atoms: _262  and  _263
REMARK   94  A    between atoms: _268  and  _270
REMARK   95  A    between atoms: _270  and  _271
REMARK   96  A    between atoms: _270  and  _273
REMARK   97  A    between atoms: _273  and  _274
REMARK   98  A    between atoms: _277  and  _279
REMARK   99  A    between atoms: _279  and  _280
REMARK  100  A    between atoms: _283  and  _285
REMARK  101  A    between atoms: _285  and  _286
REMARK  102  A    between atoms: _285  and  _288
REMARK  103  A    between atoms: _291  and  _293
REMARK  104  A    between atoms: _293  and  _294
REMARK  105  A    between atoms: _293  and  _296
REMARK  106  A    between atoms: _296  and  _297
REMARK  107  A    between atoms: _300  and  _302
REMARK  108  A    between atoms: _302  and  _303
REMARK  109  A    between atoms: _302  and  _305
REMARK  110  A    between atoms: _305  and  _306
REMARK  111  A    between atoms: _308  and  _310
REMARK  112  A    between atoms: _310  and  _311
REMARK  113  A    between atoms: _310  and  _313
REMARK  114  A    between atoms: _313  and  _314
REMARK  115  A    between atoms: _317  and  _319
REMARK  116  A    between atoms: _319  and  _320
REMARK  117  A    between atoms: _319  and  _322
REMARK  118  A    between atoms: _322  and  _323
REMARK  119  A    between atoms: _326  and  _328
REMARK  120  A    between atoms: _328  and  _329
REMARK  121  A    between atoms: _328  and  _331
REMARK  122  A    between atoms: _331  and  _332
REMARK  123  A    between atoms: _336  and  _337
REMARK  124  A    between atoms: _343  and  _344
REMARK  125  A    between atoms: _349  and  _351
REMARK  126  A    between atoms: _351  and  _352
REMARK  127  A    between atoms: _351  and  _354
REMARK  128  A    between atoms: _354  and  _355
REMARK  129  A    between atoms: _358  and  _360
REMARK  130  A    between atoms: _360  and  _361
REMARK  131  A    between atoms: _360  and  _363
REMARK  132  A    between atoms: _363  and  _364
REMARK  133  A    between atoms: _367  and  _369
REMARK  134  A    between atoms: _369  and  _370
REMARK  135  A    between atoms: _369  and  _372
REMARK  136  A    between atoms: _374  and  _376
REMARK  137  A    between atoms: _376  and  _377
REMARK  138  A    between atoms: _376  and  _379
REMARK  139  A    between atoms: _382  and  _384
REMARK  140  A    between atoms: _384  and  _385
REMARK  141  A    between atoms: _384  and  _387
REMARK  142  A    between atoms: _387  and  _388
REMARK  143  A    between atoms: _398  and  _400
REMARK  144  A    between atoms: _400  and  _401
REMARK  145  A    between atoms: _400  and  _403
REMARK  146  A    between atoms: _403  and  _404
REMARK  147  A    between atoms: _409  and  _411
REMARK  148  A    between atoms: _411  and  _412
REMARK  149  A    between atoms: _411  and  _414
REMARK  150  A    between atoms: _414  and  _415
REMARK  151  A    between atoms: _415  and  _416
REMARK  152  A    between atoms: _416  and  _417
REMARK                            x       y       z     vdW  Elec       q    Type
REMARK                         _______ _______ _______ _____ _____    ______ ____
ROOT
ATOM      1  CB  ASN A   1      -8.523   2.294   6.886  0.00  0.00    +0.110 C 
ENDROOT
BRANCH   1   2
ATOM      2  CG  ASN A   1      -7.387   1.860   7.771  0.00  0.00    +0.221 C 
ATOM      3  OD1 ASN A   1      -7.131   2.477   8.798  0.00  0.00    -0.275 OA
ATOM      4  ND2 ASN A   1      -6.645   0.853   7.345  0.00  0.00    -0.329 N 
ATOM      5 HD21 ASN A   1      -5.808   0.558   7.887  0.00  0.00    +0.145 HD
ATOM      6 HD22 ASN A   1      -6.898   0.356   6.467  0.00  0.00    +0.145 HD
ENDBRANCH   1   2
BRANCH   1   7
ATOM      7  CA  ASN A   1      -9.413   1.137   6.440  0.00  0.00    +0.142 C 
BRANCH   7   8
ATOM      8  N   ASN A   1      -8.655   0.213   5.617  0.00  0.00    -0.239 NA
ATOM      9  H   ASN A   1      -8.241   0.548   4.724  0.00  0.00    +0.142 HD
ENDBRANCH   7   8
BRANCH   7  10
ATOM     10  C   ASN A   1     -10.566   1.736   5.661  0.00  0.00    +0.225 C 
ATOM     11  O   ASN A   1     -10.436   2.013   4.469  0.00  0.00    -0.287 OA
ENDBRANCH   7  10
ENDBRANCH   1   7
TORSDOF 4
REMARK  Name = ../refined-set-2016/1bnv/1bnv_pocket.pdb
REMARK  152 active torsions:
REMARK  status: ('A' for Active; 'I' for Inactive)
REMARK    1  A    between atoms: _1  and  _3
REMARK    2  A    between atoms: _3  and  _4
REMARK    3  A    between atoms: _3  and  _6
REMARK    4  A    between atoms: _6  and  _7
REMARK    5  A    between atoms: _17  and  _19
REMARK    6  A    between atoms: _19  and  _20
REMARK    7  A    between atoms: _19  and  _22
REMARK    8  A    between atoms: _22  and  _23
REMARK    9  A    between atoms: _28  and  _29
REMARK   10  A    between atoms: _31  and  _33
REMARK   11  A    between atoms: _33  and  _34
REMARK   12  A    between atoms: _33  and  _36
REMARK   13  A    between atoms: _36  and  _37
REMARK   14  A    between atoms: _40  and  _41
REMARK   15  A    between atoms: _46  and  _48
REMARK   16  A    between atoms: _48  and  _49
REMARK   17  A    between atoms: _48  and  _51
REMARK   18  A    between atoms: _51  and  _52
REMARK   19  A    between atoms: _57  and  _59
REMARK   20  A    between atoms: _59  and  _60
REMARK   21  A    between atoms: _59  and  _62
REMARK   22  A    between atoms: _62  and  _63
REMARK   23  A    between atoms: _68  and  _70
REMARK   24  A    between atoms: _70  and  _71
REMARK   25  A    between atoms: _74  and  _76
REMARK   26  A    between atoms: _76  and  _77
REMARK   27  A    between atoms: _76  and  _79
REMARK   28  A    between atoms: _79  and  _80
REMARK   29  A    between atoms: _85  and  _87
REMARK   30  A    between atoms: _87  and  _88
REMARK   31  A    between atoms: _87  and  _90
REMARK   32  A    between atoms: _90  and  _91
REMARK   33  A    between atoms: _94  and  _96
REMARK   34  A    between atoms: _96  and  _97
REMARK   35  A    between atoms: _96  and  _99
REMARK   36  A    between atoms: _99  and  _100
REMARK   37  A    between atoms: _100  and  _101
REMARK   38  A    between atoms: _106  and  _108
REMARK   39  A    between atoms: _108  and  _109
REMARK   40  A    between atoms: _108  and  _111
REMARK   41  A    between atoms: _111  and  _112
REMARK   42  A    between atoms: _118  and  _120
REMARK   43  A    between atoms: _131  and  _134
REMARK   44  A    between atoms: _134  and  _135
REMARK   45  A    between atoms: _143  and  _144
REMARK   46  A    between atoms: _152  and  _154
REMARK   47  A    between atoms: _154  and  _155
REMARK   48  A    between atoms: _154  and  _157
REMARK   49  A    between atoms: _157  and  _158
REMARK   50  A    between atoms: _158  and  _159
REMARK   51  A    between atoms: _162  and  _164
REMARK   52  A    between atoms: _164  and  _165
REMARK   53  A    between atoms: _164  and  _167
REMARK   54  A    between atoms: _167  and  _168
REMARK   55  A    between atoms: _173  and  _175
REMARK   56  A    between atoms: _175  and  _176
REMARK   57  A    between atoms: _175  and  _178
REMARK   58  A    between atoms: _178  and  _179
REMARK   59  A    between atoms: _179  and  _180
REMARK   60  A    between atoms: _183  and  _185
REMARK   61  A    between atoms: _185  and  _186
REMARK   62  A    between atoms: _185  and  _188
REMARK   63  A    between atoms: _188  and  _189
REMARK   64  A    between atoms: _192  and  _194
REMARK   65  A    between atoms: _194  and  _195
REMARK   66  A    between atoms: _194  and  _197
REMARK   67  A    between atoms: _197  and  _198
REMARK   68  A    between atoms: _199  and  ZN_426
REMARK   69  A    between atoms: _203  and  _205
REMARK   70  A    between atoms: _205  and  _206
REMARK   71  A    between atoms: _205  and  _208
REMARK   72  A    between atoms: _208  and  _209
REMARK   73  A    between atoms: _212  and  _214
REMARK   74  A    between atoms: _214  and  _215
REMARK   75  A    between atoms: _214  and  _217
REMARK   76  A    between atoms: _220  and  _222
REMARK   77  A    between atoms: _222  and  _223
REMARK   78  A    between atoms: _222  and  _225
REMARK   79  A    between atoms: _225  and  _226
REMARK   80  A    between atoms: _231  and  _233
REMARK   81  A    between atoms: _233  and  _234
REMARK   82  A    between atoms: _233  and  _236
REMARK   83  A    between atoms: _236  and  _237
REMARK   84  A    between atoms: _243  and  _245
REMARK   85  A    between atoms: _245  and  _246
REMARK   86  A    between atoms: _248  and  _250
REMARK   87  A    between atoms: _250  and  _251
REMARK   88  A    between atoms: _250  and  _253
REMARK   89  A    between atoms: _256  and  _258
REMARK   90  A    between atoms: _258  and  _259
REMARK   91  A    between atoms: _258  and  _261
REMARK   92  A    between atoms: _261  and  _262
REMARK   93  A    between atoms: _262  and  _263
REMARK   94  A    between atoms: _268  and  _270
REMARK   95  A    between atoms: _270  and  _271
REMARK   96  A    between atoms: _270  and  _273
REMARK   97  A    between atoms: _273  and  _274
REMARK   98  A    between atoms: _277  and  _279
REMARK   99  A    between atoms: _279  and  _280
REMARK  100  A    between atoms: _283  and  _285
REMARK  101  A    between atoms: _285  and  _286
REMARK  102  A    between atoms: _285  and  _288
REMARK  103  A    between atoms: _291  and  _293
REMARK  104  A    between atoms: _293  and  _294
REMARK  105  A    between atoms: _293  and  _296
REMARK  106  A    between atoms: _296  and  _297
REMARK  107  A    between atoms: _300  and  _302
REMARK  108  A    between atoms: _302  and  _303
REMARK  109  A    between atoms: _302  and  _305
REMARK  110  A    between atoms: _305  and  _306
REMARK  111  A    between atoms: _308  and  _310
REMARK  112  A    between atoms: _310  and  _311
REMARK  113  A    between atoms: _310  and  _313
REMARK  114  A    between atoms: _313  and  _314
REMARK  115  A    between atoms: _317  and  _319
REMARK  116  A    between atoms: _319  and  _320
REMARK  117  A    between atoms: _319  and  _322
REMARK  118  A    between atoms: _322  and  _323
REMARK  119  A    between atoms: _326  and  _328
REMARK  120  A    between atoms: _328  and  _329
REMARK  121  A    between atoms: _328  and  _331
REMARK  122  A    between atoms: _331  and  _332
REMARK  123  A    between atoms: _336  and  _337
REMARK  124  A    between atoms: _343  and  _344
REMARK  125  A    between atoms: _349  and  _351
REMARK  126  A    between atoms: _351  and  _352
REMARK  127  A    between atoms: _351  and  _354
REMARK  128  A    between atoms: _354  and  _355
REMARK  129  A    between atoms: _358  and  _360
REMARK  130  A    between atoms: _360  and  _361
REMARK  131  A    between atoms: _360  and  _363
REMARK  132  A    between atoms: _363  and  _364
REMARK  133  A    between atoms: _367  and  _369
REMARK  134  A    between atoms: _369  and  _370
REMARK  135  A    between atoms: _369  and  _372
REMARK  136  A    between atoms: _374  and  _376
REMARK  137  A    between atoms: _376  and  _377
REMARK  138  A    between atoms: _376  and  _379
REMARK  139  A    between atoms: _382  and  _384
REMARK  140  A    between atoms: _384  and  _385
REMARK  141  A    between atoms: _384  and  _387
REMARK  142  A    between atoms: _387  and  _388
REMARK  143  A    between atoms: _398  and  _400
REMARK  144  A    between atoms: _400  and  _401
REMARK  145  A    between atoms: _400  and  _403
REMARK  146  A    between atoms: _403  and  _404
REMARK  147  A    between atoms: _409  and  _411
REMARK  148  A    between atoms: _411  and  _412
REMARK  149  A    between atoms: _411  and  _414
REMARK  150  A    between atoms: _414  and  _415
REMARK  151  A    between atoms: _415  and  _416
REMARK  152  A    between atoms: _416  and  _417
REMARK                            x       y       z     vdW  Elec       q    Type
REMARK                         _______ _______ _______ _____ _____    ______ ____
ROOT
ATOM      1  C   UNK A   4     -10.321  -1.379  10.529  0.00  0.00    +0.000 C 
ATOM      2  C   UNK A   4     -10.429  -2.708  11.243  0.00  0.00    +0.000 C 
ATOM      3  O   UNK A   4     -11.125  -2.831  12.247  0.00  0.00    +0.000 OA
ATOM      4  N   VAL A   5      -9.723  -3.706  10.734  0.00  0.00    +0.000 N 
ATOM      5  CA  VAL A   5      -9.761  -5.029  11.337  0.00  0.00    +0.000 C 
ATOM      6  C   VAL A   5      -8.348  -5.516  11.576  0.00  0.00    +0.000 C 
ATOM      7  N   UNK A   6      -8.249  -6.546  12.401  0.00  0.00    +0.000 N 
ATOM      8  H   UNK A   6      -9.119  -6.904  12.845  0.00  0.00    +0.000 HD
ATOM      9  C   UNK A   6      -6.999  -7.204  12.721  0.00  0.00    +0.000 C 
ATOM     10  C   UNK A   6      -6.582  -6.879  14.151  0.00  0.00    +0.000 C 
ATOM     11  C   UNK A   6      -6.201  -5.435  14.322  0.00  0.00    +0.000 A 
ATOM     12  C   UNK A   6      -6.875  -4.254  14.709  0.00  0.00    +0.000 A 
ATOM     13  N   UNK A   6      -5.946  -3.245  14.744  0.00  0.00    +0.000 N 
ATOM     14 ZN   UNK A   6      -6.945  -1.711  15.487  0.00  0.00    +0.000 Zn
ATOM     15  N   UNK A   4      -7.666  -0.534  14.072  0.00  0.00    +0.000 N 
ATOM     16  C   UNK A   4      -8.107   0.700  13.718  0.00  0.00    +0.000 A 
ATOM     17  N   UNK A   4      -8.494   0.637  12.416  0.00  0.00    +0.000 NA
ATOM     18  C   UNK A   4      -8.324  -0.594  11.925  0.00  0.00    +0.000 A 
ATOM     19  C   UNK A   4      -7.782  -1.362  12.981  0.00  0.00    +0.000 A 
ATOM     20  C   UNK A   6      -4.740  -3.764  14.390  0.00  0.00    +0.000 A 
ATOM     21  N   UNK A   6      -4.924  -5.093  14.138  0.00  0.00    +0.000 NA
ATOM     22  O   VAL A   5      -7.386  -4.956  11.057  0.00  0.00    +0.000 OA
ATOM     23  H   VAL A   5      -9.134  -3.542   9.893  0.00  0.00    +0.000 HD
ATOM     24  C   UNK A   4      -8.855  -0.899  10.527  0.00  0.00    +0.000 C 
ENDROOT
BRANCH  14  25
ATOM     25  N   UNK A   6      -8.551  -2.091  16.821  0.00  0.00    +0.000 N 
ATOM     26  C   UNK A   6      -8.085  -3.134  17.564  0.00  0.00    +0.000 A 
ATOM     27  N   UNK A   6      -9.152  -3.854  17.963  0.00  0.00    +0.000 NA
ATOM     28  C   UNK A   6     -10.284  -3.256  17.472  0.00  0.00    +0.000 A 
ATOM     29  C   UNK A   6      -9.877  -2.127  16.739  0.00  0.00    +0.000 A 
BRANCH  29  30
ATOM     30  C   UNK A   6     -10.548  -1.078  15.920  0.00  0.00    +0.000 C 
BRANCH  30  31
ATOM     31  C   UNK A   6     -12.026  -1.363  15.697  0.00  0.00    +0.000 C 
BRANCH  31  32
ATOM     32  C   UNK A   6     -12.646  -0.159  15.024  0.00  0.00    +0.000 C 
ATOM     33  N   UNK A   4     -13.607   0.449  15.710  0.00  0.00    +0.000 N 
ATOM     34  H   UNK A   4     -13.896   0.045  16.624  0.00  0.00    +0.000 HD
ATOM     35  O   UNK A   6     -12.313   0.168  13.883  0.00  0.00    +0.000 OA
BRANCH  33  36
ATOM     36  C   UNK A   4     -14.275   1.655  15.241  0.00  0.00    +0.000 C 
BRANCH  36  37
ATOM     37  C   UNK A   4     -13.593   2.746  16.066  0.00  0.00    +0.000 C 
ATOM     38  O   UNK A   4     -13.678   2.756  17.295  0.00  0.00    +0.000 OA
ATOM     39  N   VAL A   5     -12.812   3.579  15.386  0.00  0.00    +0.000 N 
ATOM     40  H   VAL A   5     -12.762   3.485  14.351  0.00  0.00    +0.000 HD
BRANCH  39  41
ATOM     41  CA  VAL A   5     -12.026   4.616  16.032  0.00  0.00    +0.000 C 
BRANCH  41  42
ATOM     42  C   VAL A   5     -12.729   5.955  16.067  0.00  0.00    +0.000 C 
ATOM     43  N   UNK A   6     -12.745   6.573  17.252  0.00  0.00    +0.000 N 
ATOM     44  H   UNK A   6     -12.284   6.106  18.059  0.00  0.00    +0.000 HD
ATOM     45  O   VAL A   5     -13.242   6.411  15.040  0.00  0.00    +0.000 OA
BRANCH  43  46
ATOM     46  C   UNK A   6     -13.379   7.874  17.469  0.00  0.00    +0.000 C 
BRANCH  46  47
ATOM     47  C   UNK A   6     -12.414   8.804  18.194  0.00  0.00    +0.000 C 
ATOM     48  O   UNK A   6     -11.549   8.364  18.942  0.00  0.00    +0.000 OA
ENDBRANCH  46  47
BRANCH  46  49
ATOM     49  C   UNK A   6     -14.623   7.754  18.362  0.00  0.00    +0.000 C 
BRANCH  49  50
ATOM     50  C   UNK A   6     -15.575   6.670  17.921  0.00  0.00    +0.000 A 
ATOM     51  N   UNK A   6     -15.240   5.397  18.129  0.00  0.00    +0.000 NA
ATOM     52  C   UNK A   6     -16.251   4.563  17.749  0.00  0.00    +0.000 A 
ATOM     53  N   UNK A   6     -17.252   5.334  17.289  0.00  0.00    +0.000 NA
ATOM     54  C   UNK A   6     -16.863   6.651  17.383  0.00  0.00    +0.000 A 
ENDBRANCH  49  50
ENDBRANCH  46  49
ENDBRANCH  43  46
ENDBRANCH  41  42
BRANCH  41  55
ATOM     55  CB  VAL A   5     -10.639   4.739  15.329  0.00  0.00    +0.000 C 
ATOM     56  CG2 VAL A   5      -9.729   5.737  16.055  0.00  0.00    +0.000 C 
ATOM     57  CG1 VAL A   5      -9.967   3.363  15.257  0.00  0.00    +0.000 C 
ENDBRANCH  41  55
ENDBRANCH  39  41
ENDBRANCH  36  37
BRANCH  36  58
ATOM     58  C   UNK A   4     -15.774   1.558  15.510  0.00  0.00    +0.000 C 
BRANCH  58  59
ATOM     59  C   UNK A   4     -16.477   0.524  14.619  0.00  0.00    +0.000 C 
ATOM     60  C   UNK A   4     -17.442  -0.293  15.420  0.00  0.00    +0.000 C 
ATOM     61  C   UNK A   4     -17.200   1.217  13.489  0.00  0.00    +0.000 C 
ENDBRANCH  58  59
ENDBRANCH  36  58
ENDBRANCH  33  36
ENDBRANCH  31  32
BRANCH  31  62
ATOM     62  N   UNK A   6     -12.231  -2.550  14.887  0.00  0.00    +0.000 N 
ATOM     63  C   LEU A   2     -12.856  -3.621  15.368  0.00  0.00    +0.000 C 
ATOM     64  O   LEU A   2     -13.267  -3.699  16.527  0.00  0.00    +0.000 OA
ATOM     65  H   UNK A   6     -11.881  -2.563  13.908  0.00  0.00    +0.000 HD
BRANCH  63  66
ATOM     66  CA  LEU A   2     -13.057  -4.782  14.414  0.00  0.00    +0.000 C 
BRANCH  66  67
ATOM     67  N   LEU A   2     -12.695  -6.014  15.080  0.00  0.00    +0.000 N 
ATOM     68  H   LEU A   2     -13.431  -6.512  15.620  0.00  0.00    +0.000 HD
ATOM     69  C   GLU A   1     -11.480  -6.547  15.043  0.00  0.00    +0.000 C 
ATOM     70  O   GLU A   1     -10.552  -6.091  14.365  0.00  0.00    +0.000 OA
BRANCH  69  71
ATOM     71  CA  GLU A   1     -11.316  -7.852  15.830  0.00  0.00    +0.000 C 
BRANCH  71  72
ATOM     72  N   GLU A   1     -10.850  -8.892  14.930  0.00  0.00    +0.000 NA
ATOM     73  H   GLU A   1     -10.284  -8.617  14.102  0.00  0.00    +0.000 HD
ENDBRANCH  71  72
BRANCH  71  74
ATOM     74  CB  GLU A   1     -10.333  -7.658  16.984  0.00  0.00    +0.000 C 
BRANCH  74  75
ATOM     75  CG  GLU A   1     -10.825  -6.722  18.070  0.00  0.00    +0.000 C 
BRANCH  75  76
ATOM     76  CD  GLU A   1      -9.919  -6.694  19.290  0.00  0.00    +0.000 C 
ATOM     77  OE2 GLU A   1      -9.841  -5.636  19.956  0.00  0.00    +0.000 OA
ATOM     78  OE1 GLU A   1      -9.300  -7.727  19.608  0.00  0.00    +0.000 OA
ENDBRANCH  75  76
ENDBRANCH  74  75
ENDBRANCH  71  74
ENDBRANCH  69  71
ENDBRANCH  66  67
BRANCH  66  79
ATOM     79  CB  LEU A   2     -14.534  -4.833  14.027  0.00  0.00    +0.000 C 
BRANCH  79  80
ATOM     80  CG  LEU A   2     -15.192  -3.500  13.662  0.00  0.00    +0.000 C 
ATOM     81  CD2 LEU A   2     -16.685  -3.708  13.514  0.00  0.00    +0.000 C 
ATOM     82  CD1 LEU A   2     -14.600  -2.950  12.370  0.00  0.00    +0.000 C 
ENDBRANCH  79  80
ENDBRANCH  66  79
ENDBRANCH  63  66
ENDBRANCH  31  62
ENDBRANCH  30  31
ENDBRANCH  29  30
ENDBRANCH  14  25
BRANCH   1  84
ATOM     83  C   UNK A   3     -11.837   0.520  10.418  0.00  0.00    +0.000 C 
ATOM     84  N   UNK A   4     -11.206  -0.394  11.145  0.00  0.00    +0.000 N 
ATOM     85  H   UNK A   4     -11.345  -0.409  12.176  0.00  0.00    +0.000 HD
ATOM     86  O   UNK A   3     -11.609   0.680   9.215  0.00  0.00    +0.000 OA
BRANCH  83  87
ATOM     87  C   UNK A   3     -12.727   1.505  11.174  0.00  0.00    +0.000 C 
BRANCH  87  90
ATOM     88  C   LEU A   2     -12.627   3.916  11.262  0.00  0.00    +0.000 C 
ATOM     89  O   LEU A   2     -12.829   3.920  12.466  0.00  0.00    +0.000 OA
ATOM     90  N   UNK A   3     -12.626   2.807  10.535  0.00  0.00    +0.000 N 
ATOM     91  H   UNK A   3     -12.552   2.869   9.499  0.00  0.00    +0.000 HD
BRANCH  88  92
ATOM     92  CA  LEU A   2     -12.422   5.217  10.528  0.00  0.00    +0.000 C 
BRANCH  92  94
ATOM     93  C   GLU A   1     -12.957   7.560  10.806  0.00  0.00    +0.000 C 
ATOM     94  N   LEU A   2     -12.744   6.370  11.364  0.00  0.00    +0.000 N 
ATOM     95  H   LEU A   2     -12.807   6.262  12.396  0.00  0.00    +0.000 HD
ATOM     96  O   GLU A   1     -12.919   7.727   9.596  0.00  0.00    +0.000 OA
BRANCH  93  97
ATOM     97  CA  GLU A   1     -13.300   8.728  11.725  0.00  0.00    +0.000 C 
BRANCH  97  98
ATOM     98  CB  GLU A   1     -12.014   9.376  12.276  0.00  0.00    +0.000 C 
ATOM     99  CG2 GLU A   1     -11.375   8.508  13.348  0.00  0.00    +0.000 C 
BRANCH  98 100
ATOM    100  CG1 GLU A   1     -11.043   9.662  11.132  0.00  0.00    +0.000 C 
ATOM    101  CD1 GLU A   1      -9.767  10.356  11.585  0.00  0.00    +0.000 C 
ENDBRANCH  98 100
ENDBRANCH  97  98
BRANCH  97 102
ATOM    102  N   GLU A   1     -14.188   8.308  12.793  0.00  0.00    +0.000 NA
ATOM    103  H   GLU A   1     -13.856   7.592  13.471  0.00  0.00    +0.000 HD
ENDBRANCH  97 102
ENDBRANCH  93  97
ENDBRANCH  92  94
BRANCH  92 104
ATOM    104  CB  LEU A   2     -10.956   5.289  10.047  0.00  0.00    +0.000 C 
BRANCH 104 105
ATOM    105  CG  LEU A   2      -9.873   5.113  11.147  0.00  0.00    +0.000 C 
BRANCH 105 106
ATOM    106  CD  LEU A   2      -9.170   3.759  11.088  0.00  0.00    +0.000 C 
ATOM    107  NE2 LEU A   2      -7.882   3.743  11.377  0.00  0.00    +0.000 N 
ATOM    108 HE21 LEU A   2      -7.394   4.627  11.627  0.00  0.00    +0.000 HD
ATOM    109 HE22 LEU A   2      -7.355   2.847  11.355  0.00  0.00    +0.000 HD
ATOM    110  OE1 LEU A   2      -9.783   2.750  10.790  0.00  0.00    +0.000 OA
ENDBRANCH 105 106
ENDBRANCH 104 105
ENDBRANCH  92 104
ENDBRANCH  88  92
ENDBRANCH  87  90
BRANCH  87 111
ATOM    111  C   UNK A   3     -14.191   1.041  11.385  0.00  0.00    +0.000 C 
BRANCH 111 112
ATOM    112  C   UNK A   3     -14.901   0.530  10.150  0.00  0.00    +0.000 A 
ATOM    113  C   UNK A   3     -16.003   1.216   9.641  0.00  0.00    +0.000 A 
ATOM    114  C   UNK A   3     -16.741   0.706   8.581  0.00  0.00    +0.000 A 
ATOM    115  C   UNK A   3     -16.376  -0.517   8.005  0.00  0.00    +0.000 A 
ATOM    116  C   UNK A   3     -15.274  -1.214   8.495  0.00  0.00    +0.000 A 
ATOM    117  C   UNK A   3     -14.544  -0.688   9.561  0.00  0.00    +0.000 A 
ENDBRANCH 111 112
ENDBRANCH  87 111
ENDBRANCH  83  87
ENDBRANCH   1  84
BRANCH   9 118
ATOM    118  C   UNK A   6      -7.411  -8.657  12.612  0.00  0.00    +0.000 C 
ATOM    119  O   UNK A   6      -8.371  -9.071  13.271  0.00  0.00    +0.000 OA
ENDBRANCH   9 118
BRANCH   5 120
ATOM    120  CB  VAL A   5     -10.477  -6.050  10.429  0.00  0.00    +0.000 C 
BRANCH 120 121
ATOM    121  CG  VAL A   5     -11.921  -5.718  10.116  0.00  0.00    +0.000 A 
ATOM    122  CD2 VAL A   5     -12.961  -6.326  10.820  0.00  0.00    +0.000 A 
ATOM    123  CE2 VAL A   5     -14.301  -6.079  10.475  0.00  0.00    +0.000 A 
ATOM    124  CZ  VAL A   5     -14.607  -5.214   9.422  0.00  0.00    +0.000 A 
ATOM    125  CE1 VAL A   5     -13.581  -4.604   8.723  0.00  0.00    +0.000 A 
ATOM    126  CD1 VAL A   5     -12.241  -4.857   9.072  0.00  0.00    +0.000 A 
ENDBRANCH 120 121
ENDBRANCH   5 120
TORSDOF 42
REMARK  Name = ../refined-set-2016/1bnv/1bnv_pocket.pdb
REMARK  152 active torsions:
REMARK  status: ('A' for Active; 'I' for Inactive)
REMARK    1  A    between atoms: _1  and  _3
REMARK    2  A    between atoms: _3  and  _4
REMARK    3  A    between atoms: _3  and  _6
REMARK    4  A    between atoms: _6  and  _7
REMARK    5  A    between atoms: _17  and  _19
REMARK    6  A    between atoms: _19  and  _20
REMARK    7  A    between atoms: _19  and  _22
REMARK    8  A    between atoms: _22  and  _23
REMARK    9  A    between atoms: _28  and  _29
REMARK   10  A    between atoms: _31  and  _33
REMARK   11  A    between atoms: _33  and  _34
REMARK   12  A    between atoms: _33  and  _36
REMARK   13  A    between atoms: _36  and  _37
REMARK   14  A    between atoms: _40  and  _41
REMARK   15  A    between atoms: _46  and  _48
REMARK   16  A    between atoms: _48  and  _49
REMARK   17  A    between atoms: _48  and  _51
REMARK   18  A    between atoms: _51  and  _52
REMARK   19  A    between atoms: _57  and  _59
REMARK   20  A    between atoms: _59  and  _60
REMARK   21  A    between atoms: _59  and  _62
REMARK   22  A    between atoms: _62  and  _63
REMARK   23  A    between atoms: _68  and  _70
REMARK   24  A    between atoms: _70  and  _71
REMARK   25  A    between atoms: _74  and  _76
REMARK   26  A    between atoms: _76  and  _77
REMARK   27  A    between atoms: _76  and  _79
REMARK   28  A    between atoms: _79  and  _80
REMARK   29  A    between atoms: _85  and  _87
REMARK   30  A    between atoms: _87  and  _88
REMARK   31  A    between atoms: _87  and  _90
REMARK   32  A    between atoms: _90  and  _91
REMARK   33  A    between atoms: _94  and  _96
REMARK   34  A    between atoms: _96  and  _97
REMARK   35  A    between atoms: _96  and  _99
REMARK   36  A    between atoms: _99  and  _100
REMARK   37  A    between atoms: _100  and  _101
REMARK   38  A    between atoms: _106  and  _108
REMARK   39  A    between atoms: _108  and  _109
REMARK   40  A    between atoms: _108  and  _111
REMARK   41  A    between atoms: _111  and  _112
REMARK   42  A    between atoms: _118  and  _120
REMARK   43  A    between atoms: _131  and  _134
REMARK   44  A    between atoms: _134  and  _135
REMARK   45  A    between atoms: _143  and  _144
REMARK   46  A    between atoms: _152  and  _154
REMARK   47  A    between atoms: _154  and  _155
REMARK   48  A    between atoms: _154  and  _157
REMARK   49  A    between atoms: _157  and  _158
REMARK   50  A    between atoms: _158  and  _159
REMARK   51  A    between atoms: _162  and  _164
REMARK   52  A    between atoms: _164  and  _165
REMARK   53  A    between atoms: _164  and  _167
REMARK   54  A    between atoms: _167  and  _168
REMARK   55  A    between atoms: _173  and  _175
REMARK   56  A    between atoms: _175  and  _176
REMARK   57  A    between atoms: _175  and  _178
REMARK   58  A    between atoms: _178  and  _179
REMARK   59  A    between atoms: _179  and  _180
REMARK   60  A    between atoms: _183  and  _185
REMARK   61  A    between atoms: _185  and  _186
REMARK   62  A    between atoms: _185  and  _188
REMARK   63  A    between atoms: _188  and  _189
REMARK   64  A    between atoms: _192  and  _194
REMARK   65  A    between atoms: _194  and  _195
REMARK   66  A    between atoms: _194  and  _197
REMARK   67  A    between atoms: _197  and  _198
REMARK   68  A    between atoms: _199  and  ZN_426
REMARK   69  A    between atoms: _203  and  _205
REMARK   70  A    between atoms: _205  and  _206
REMARK   71  A    between atoms: _205  and  _208
REMARK   72  A    between atoms: _208  and  _209
REMARK   73  A    between atoms: _212  and  _214
REMARK   74  A    between atoms: _214  and  _215
REMARK   75  A    between atoms: _214  and  _217
REMARK   76  A    between atoms: _220  and  _222
REMARK   77  A    between atoms: _222  and  _223
REMARK   78  A    between atoms: _222  and  _225
REMARK   79  A    between atoms: _225  and  _226
REMARK   80  A    between atoms: _231  and  _233
REMARK   81  A    between atoms: _233  and  _234
REMARK   82  A    between atoms: _233  and  _236
REMARK   83  A    between atoms: _236  and  _237
REMARK   84  A    between atoms: _243  and  _245
REMARK   85  A    between atoms: _245  and  _246
REMARK   86  A    between atoms: _248  and  _250
REMARK   87  A    between atoms: _250  and  _251
REMARK   88  A    between atoms: _250  and  _253
REMARK   89  A    between atoms: _256  and  _258
REMARK   90  A    between atoms: _258  and  _259
REMARK   91  A    between atoms: _258  and  _261
REMARK   92  A    between atoms: _261  and  _262
REMARK   93  A    between atoms: _262  and  _263
REMARK   94  A    between atoms: _268  and  _270
REMARK   95  A    between atoms: _270  and  _271
REMARK   96  A    between atoms: _270  and  _273
REMARK   97  A    between atoms: _273  and  _274
REMARK   98  A    between atoms: _277  and  _279
REMARK   99  A    between atoms: _279  and  _280
REMARK  100  A    between atoms: _283  and  _285
REMARK  101  A    between atoms: _285  and  _286
REMARK  102  A    between atoms: _285  and  _288
REMARK  103  A    between atoms: _291  and  _293
REMARK  104  A    between atoms: _293  and  _294
REMARK  105  A    between atoms: _293  and  _296
REMARK  106  A    between atoms: _296  and  _297
REMARK  107  A    between atoms: _300  and  _302
REMARK  108  A    between atoms: _302  and  _303
REMARK  109  A    between atoms: _302  and  _305
REMARK  110  A    between atoms: _305  and  _306
REMARK  111  A    between atoms: _308  and  _310
REMARK  112  A    between atoms: _310  and  _311
REMARK  113  A    between atoms: _310  and  _313
REMARK  114  A    between atoms: _313  and  _314
REMARK  115  A    between atoms: _317  and  _319
REMARK  116  A    between atoms: _319  and  _320
REMARK  117  A    between atoms: _319  and  _322
REMARK  118  A    between atoms: _322  and  _323
REMARK  119  A    between atoms: _326  and  _328
REMARK  120  A    between atoms: _328  and  _329
REMARK  121  A    between atoms: _328  and  _331
REMARK  122  A    between atoms: _331  and  _332
REMARK  123  A    between atoms: _336  and  _337
REMARK  124  A    between atoms: _343  and  _344
REMARK  125  A    between atoms: _349  and  _351
REMARK  126  A    between atoms: _351  and  _352
REMARK  127  A    between atoms: _351  and  _354
REMARK  128  A    between atoms: _354  and  _355
REMARK  129  A    between atoms: _358  and  _360
REMARK  130  A    between atoms: _360  and  _361
REMARK  131  A    between atoms: _360  and  _363
REMARK  132  A    between atoms: _363  and  _364
REMARK  133  A    between atoms: _367  and  _369
REMARK  134  A    between atoms: _369  and  _370
REMARK  135  A    between atoms: _369  and  _372
REMARK  136  A    between atoms: _374  and  _376
REMARK  137  A    between atoms: _376  and  _377
REMARK  138  A    between atoms: _376  and  _379
REMARK  139  A    between atoms: _382  and  _384
REMARK  140  A    between atoms: _384  and  _385
REMARK  141  A    between atoms: _384  and  _387
REMARK  142  A    between atoms: _387  and  _388
REMARK  143  A    between atoms: _398  and  _400
REMARK  144  A    between atoms: _400  and  _401
REMARK  145  A    between atoms: _400  and  _403
REMARK  146  A    between atoms: _403  and  _404
REMARK  147  A    between atoms: _409  and  _411
REMARK  148  A    between atoms: _411  and  _412
REMARK  149  A    between atoms: _411  and  _414
REMARK  150  A    between atoms: _414  and  _415
REMARK  151  A    between atoms: _415  and  _416
REMARK  152  A    between atoms: _416  and  _417
REMARK                            x       y       z     vdW  Elec       q    Type
REMARK                         _______ _______ _______ _____ _____    ______ ____
ROOT
ATOM      1  C   GLU A   1      -6.065  -8.636  21.174  0.00  0.00    +0.238 C 
ATOM      2  O   GLU A   1      -5.242  -9.162  21.919  0.00  0.00    -0.274 OA
ATOM      3  N   HIS A   2      -7.275  -8.257  21.574  0.00  0.00    -0.298 N 
ATOM      4  H   HIS A   2      -7.904  -7.792  20.889  0.00  0.00    +0.150 HD
ENDROOT
BRANCH   1   5
ATOM      5  CA  GLU A   1      -5.753  -8.371  19.700  0.00  0.00    +0.145 C 
BRANCH   5   6
ATOM      6  N   GLU A   1      -6.858  -8.926  18.935  0.00  0.00    -0.238 NA
ATOM      7  H   GLU A   1      -7.678  -8.329  18.703  0.00  0.00    +0.142 HD
ENDBRANCH   5   6
BRANCH   5   8
ATOM      8  CB  GLU A   1      -5.616  -6.877  19.419  0.00  0.00    +0.038 C 
BRANCH   8   9
ATOM      9  CG  GLU A   1      -5.438  -6.561  17.960  0.00  0.00    +0.116 C 
BRANCH   9  10
ATOM     10  CD  GLU A   1      -4.650  -5.303  17.734  0.00  0.00    +0.365 C 
ATOM     11  OE2 GLU A   1      -5.211  -4.207  17.870  0.00  0.00    -0.246 OA
ATOM     12  OE1 GLU A   1      -3.463  -5.413  17.402  0.00  0.00    -0.246 OA
ENDBRANCH   9  10
ENDBRANCH   8   9
ENDBRANCH   5   8
ENDBRANCH   1   5
BRANCH   3  13
ATOM     13  CA  HIS A   2      -7.752  -8.467  22.928  0.00  0.00    +0.143 C 
BRANCH  13  14
ATOM     14  C   HIS A   2      -8.140  -9.922  23.013  0.00  0.00    +0.227 C 
ATOM     15  O   HIS A   2      -8.502 -10.532  22.003  0.00  0.00    -0.286 OA
ENDBRANCH  13  14
BRANCH  13  16
ATOM     16  CB  HIS A   2      -8.964  -7.579  23.215  0.00  0.00    +0.075 C 
BRANCH  16  17
ATOM     17  CG  HIS A   2      -8.611  -6.146  23.473  0.00  0.00    +0.082 A 
ATOM     18  CD2 HIS A   2      -8.196  -5.522  24.602  0.00  0.00    +0.115 A 
ATOM     19  NE2 HIS A   2      -7.956  -4.209  24.275  0.00  0.00    -0.221 NA
ATOM     20  CE1 HIS A   2      -8.216  -4.030  22.993  0.00  0.00    +0.199 A 
ATOM     21  ND1 HIS A   2      -8.615  -5.184  22.487  0.00  0.00    -0.227 NA
ENDBRANCH  16  17
ENDBRANCH  13  16
ENDBRANCH   3  13
TORSDOF 9
REMARK  Name = ../refined-set-2016/1bnv/1bnv_pocket.pdb
REMARK  152 active torsions:
REMARK  status: ('A' for Active; 'I' for Inactive)
REMARK    1  A    between atoms: _1  and  _3
REMARK    2  A    between atoms: _3  and  _4
REMARK    3  A    between atoms: _3  and  _6
REMARK    4  A    between atoms: _6  and  _7
REMARK    5  A    between atoms: _17  and  _19
REMARK    6  A    between atoms: _19  and  _20
REMARK    7  A    between atoms: _19  and  _22
REMARK    8  A    between atoms: _22  and  _23
REMARK    9  A    between atoms: _28  and  _29
REMARK   10  A    between atoms: _31  and  _33
REMARK   11  A    between atoms: _33  and  _34
REMARK   12  A    between atoms: _33  and  _36
REMARK   13  A    between atoms: _36  and  _37
REMARK   14  A    between atoms: _40  and  _41
REMARK   15  A    between atoms: _46  and  _48
REMARK   16  A    between atoms: _48  and  _49
REMARK   17  A    between atoms: _48  and  _51
REMARK   18  A    between atoms: _51  and  _52
REMARK   19  A    between atoms: _57  and  _59
REMARK   20  A    between atoms: _59  and  _60
REMARK   21  A    between atoms: _59  and  _62
REMARK   22  A    between atoms: _62  and  _63
REMARK   23  A    between atoms: _68  and  _70
REMARK   24  A    between atoms: _70  and  _71
REMARK   25  A    between atoms: _74  and  _76
REMARK   26  A    between atoms: _76  and  _77
REMARK   27  A    between atoms: _76  and  _79
REMARK   28  A    between atoms: _79  and  _80
REMARK   29  A    between atoms: _85  and  _87
REMARK   30  A    between atoms: _87  and  _88
REMARK   31  A    between atoms: _87  and  _90
REMARK   32  A    between atoms: _90  and  _91
REMARK   33  A    between atoms: _94  and  _96
REMARK   34  A    between atoms: _96  and  _97
REMARK   35  A    between atoms: _96  and  _99
REMARK   36  A    between atoms: _99  and  _100
REMARK   37  A    between atoms: _100  and  _101
REMARK   38  A    between atoms: _106  and  _108
REMARK   39  A    between atoms: _108  and  _109
REMARK   40  A    between atoms: _108  and  _111
REMARK   41  A    between atoms: _111  and  _112
REMARK   42  A    between atoms: _118  and  _120
REMARK   43  A    between atoms: _131  and  _134
REMARK   44  A    between atoms: _134  and  _135
REMARK   45  A    between atoms: _143  and  _144
REMARK   46  A    between atoms: _152  and  _154
REMARK   47  A    between atoms: _154  and  _155
REMARK   48  A    between atoms: _154  and  _157
REMARK   49  A    between atoms: _157  and  _158
REMARK   50  A    between atoms: _158  and  _159
REMARK   51  A    between atoms: _162  and  _164
REMARK   52  A    between atoms: _164  and  _165
REMARK   53  A    between atoms: _164  and  _167
REMARK   54  A    between atoms: _167  and  _168
REMARK   55  A    between atoms: _173  and  _175
REMARK   56  A    between atoms: _175  and  _176
REMARK   57  A    between atoms: _175  and  _178
REMARK   58  A    between atoms: _178  and  _179
REMARK   59  A    between atoms: _179  and  _180
REMARK   60  A    between atoms: _183  and  _185
REMARK   61  A    between atoms: _185  and  _186
REMARK   62  A    between atoms: _185  and  _188
REMARK   63  A    between atoms: _188  and  _189
REMARK   64  A    between atoms: _192  and  _194
REMARK   65  A    between atoms: _194  and  _195
REMARK   66  A    between atoms: _194  and  _197
REMARK   67  A    between atoms: _197  and  _198
REMARK   68  A    between atoms: _199  and  ZN_426
REMARK   69  A    between atoms: _203  and  _205
REMARK   70  A    between atoms: _205  and  _206
REMARK   71  A    between atoms: _205  and  _208
REMARK   72  A    between atoms: _208  and  _209
REMARK   73  A    between atoms: _212  and  _214
REMARK   74  A    between atoms: _214  and  _215
REMARK   75  A    between atoms: _214  and  _217
REMARK   76  A    between atoms: _220  and  _222
REMARK   77  A    between atoms: _222  and  _223
REMARK   78  A    between atoms: _222  and  _225
REMARK   79  A    between atoms: _225  and  _226
REMARK   80  A    between atoms: _231  and  _233
REMARK   81  A    between atoms: _233  and  _234
REMARK   82  A    between atoms: _233  and  _236
REMARK   83  A    between atoms: _236  and  _237
REMARK   84  A    between atoms: _243  and  _245
REMARK   85  A    between atoms: _245  and  _246
REMARK   86  A    between atoms: _248  and  _250
REMARK   87  A    between atoms: _250  and  _251
REMARK   88  A    between atoms: _250  and  _253
REMARK   89  A    between atoms: _256  and  _258
REMARK   90  A    between atoms: _258  and  _259
REMARK   91  A    between atoms: _258  and  _261
REMARK   92  A    between atoms: _261  and  _262
REMARK   93  A    between atoms: _262  and  _263
REMARK   94  A    between atoms: _268  and  _270
REMARK   95  A    between atoms: _270  and  _271
REMARK   96  A    between atoms: _270  and  _273
REMARK   97  A    between atoms: _273  and  _274
REMARK   98  A    between atoms: _277  and  _279
REMARK   99  A    between atoms: _279  and  _280
REMARK  100  A    between atoms: _283  and  _285
REMARK  101  A    between atoms: _285  and  _286
REMARK  102  A    between atoms: _285  and  _288
REMARK  103  A    between atoms: _291  and  _293
REMARK  104  A    between atoms: _293  and  _294
REMARK  105  A    between atoms: _293  and  _296
REMARK  106  A    between atoms: _296  and  _297
REMARK  107  A    between atoms: _300  and  _302
REMARK  108  A    between atoms: _302  and  _303
REMARK  109  A    between atoms: _302  and  _305
REMARK  110  A    between atoms: _305  and  _306
REMARK  111  A    between atoms: _308  and  _310
REMARK  112  A    between atoms: _310  and  _311
REMARK  113  A    between atoms: _310  and  _313
REMARK  114  A    between atoms: _313  and  _314
REMARK  115  A    between atoms: _317  and  _319
REMARK  116  A    between atoms: _319  and  _320
REMARK  117  A    between atoms: _319  and  _322
REMARK  118  A    between atoms: _322  and  _323
REMARK  119  A    between atoms: _326  and  _328
REMARK  120  A    between atoms: _328  and  _329
REMARK  121  A    between atoms: _328  and  _331
REMARK  122  A    between atoms: _331  and  _332
REMARK  123  A    between atoms: _336  and  _337
REMARK  124  A    between atoms: _343  and  _344
REMARK  125  A    between atoms: _349  and  _351
REMARK  126  A    between atoms: _351  and  _352
REMARK  127  A    between atoms: _351  and  _354
REMARK  128  A    between atoms: _354  and  _355
REMARK  129  A    between atoms: _358  and  _360
REMARK  130  A    between atoms: _360  and  _361
REMARK  131  A    between atoms: _360  and  _363
REMARK  132  A    between atoms: _363  and  _364
REMARK  133  A    between atoms: _367  and  _369
REMARK  134  A    between atoms: _369  and  _370
REMARK  135  A    between atoms: _369  and  _372
REMARK  136  A    between atoms: _374  and  _376
REMARK  137  A    between atoms: _376  and  _377
REMARK  138  A    between atoms: _376  and  _379
REMARK  139  A    between atoms: _382  and  _384
REMARK  140  A    between atoms: _384  and  _385
REMARK  141  A    between atoms: _384  and  _387
REMARK  142  A    between atoms: _387  and  _388
REMARK  143  A    between atoms: _398  and  _400
REMARK  144  A    between atoms: _400  and  _401
REMARK  145  A    between atoms: _400  and  _403
REMARK  146  A    between atoms: _403  and  _404
REMARK  147  A    between atoms: _409  and  _411
REMARK  148  A    between atoms: _411  and  _412
REMARK  149  A    between atoms: _411  and  _414
REMARK  150  A    between atoms: _414  and  _415
REMARK  151  A    between atoms: _415  and  _416
REMARK  152  A    between atoms: _416  and  _417
REMARK                            x       y       z     vdW  Elec       q    Type
REMARK                         _______ _______ _______ _____ _____    ______ ____
ROOT
ATOM      1  CA  PHE A   1      -7.867  14.171  15.359  0.00  0.00    +0.149 C 
ENDROOT
BRANCH   1   2
ATOM      2  C   PHE A   1      -6.437  14.413  15.827  0.00  0.00    +0.239 C 
ATOM      3  O   PHE A   1      -5.984  13.853  16.828  0.00  0.00    -0.274 OA
ATOM      4  N   GLY A   2      -5.732  15.265  15.095  0.00  0.00    -0.297 N 
ATOM      5  H   GLY A   2      -6.172  15.717  14.268  0.00  0.00    +0.150 HD
BRANCH   4   6
ATOM      6  CA  GLY A   2      -4.355  15.575  15.433  0.00  0.00    +0.163 C 
BRANCH   6   7
ATOM      7  C   GLY A   2      -4.172  16.052  16.853  0.00  0.00    +0.229 C 
ATOM      8  O   GLY A   2      -3.190  15.713  17.491  0.00  0.00    -0.286 OA
ENDBRANCH   6   7
ENDBRANCH   4   6
ENDBRANCH   1   2
BRANCH   1   9
ATOM      9  N   PHE A   1      -8.531  15.426  15.001  0.00  0.00    -0.238 NA
ATOM     10  H   PHE A   1      -8.940  15.517  14.049  0.00  0.00    +0.142 HD
ENDBRANCH   1   9
BRANCH   1  11
ATOM     11  CB  PHE A   1      -7.871  13.224  14.151  0.00  0.00    +0.053 C 
BRANCH  11  12
ATOM     12  CG  PHE A   1      -7.323  11.857  14.441  0.00  0.00    -0.020 A 
ATOM     13  CD2 PHE A   1      -8.142  10.865  14.952  0.00  0.00    -0.004 A 
ATOM     14  CE2 PHE A   1      -7.637   9.598  15.226  0.00  0.00    -0.000 A 
ATOM     15  CZ  PHE A   1      -6.294   9.315  14.988  0.00  0.00    -0.000 A 
ATOM     16  CE1 PHE A   1      -5.462  10.298  14.475  0.00  0.00    -0.000 A 
ATOM     17  CD1 PHE A   1      -5.979  11.564  14.205  0.00  0.00    -0.004 A 
ENDBRANCH  11  12
ENDBRANCH   1  11
TORSDOF 6
REMARK  Name = ../refined-set-2016/1bnv/1bnv_pocket.pdb
REMARK  152 active torsions:
REMARK  status: ('A' for Active; 'I' for Inactive)
REMARK    1  A    between atoms: _1  and  _3
REMARK    2  A    between atoms: _3  and  _4
REMARK    3  A    between atoms: _3  and  _6
REMARK    4  A    between atoms: _6  and  _7
REMARK    5  A    between atoms: _17  and  _19
REMARK    6  A    between atoms: _19  and  _20
REMARK    7  A    between atoms: _19  and  _22
REMARK    8  A    between atoms: _22  and  _23
REMARK    9  A    between atoms: _28  and  _29
REMARK   10  A    between atoms: _31  and  _33
REMARK   11  A    between atoms: _33  and  _34
REMARK   12  A    between atoms: _33  and  _36
REMARK   13  A    between atoms: _36  and  _37
REMARK   14  A    between atoms: _40  and  _41
REMARK   15  A    between atoms: _46  and  _48
REMARK   16  A    between atoms: _48  and  _49
REMARK   17  A    between atoms: _48  and  _51
REMARK   18  A    between atoms: _51  and  _52
REMARK   19  A    between atoms: _57  and  _59
REMARK   20  A    between atoms: _59  and  _60
REMARK   21  A    between atoms: _59  and  _62
REMARK   22  A    between atoms: _62  and  _63
REMARK   23  A    between atoms: _68  and  _70
REMARK   24  A    between atoms: _70  and  _71
REMARK   25  A    between atoms: _74  and  _76
REMARK   26  A    between atoms: _76  and  _77
REMARK   27  A    between atoms: _76  and  _79
REMARK   28  A    between atoms: _79  and  _80
REMARK   29  A    between atoms: _85  and  _87
REMARK   30  A    between atoms: _87  and  _88
REMARK   31  A    between atoms: _87  and  _90
REMARK   32  A    between atoms: _90  and  _91
REMARK   33  A    between atoms: _94  and  _96
REMARK   34  A    between atoms: _96  and  _97
REMARK   35  A    between atoms: _96  and  _99
REMARK   36  A    between atoms: _99  and  _100
REMARK   37  A    between atoms: _100  and  _101
REMARK   38  A    between atoms: _106  and  _108
REMARK   39  A    between atoms: _108  and  _109
REMARK   40  A    between atoms: _108  and  _111
REMARK   41  A    between atoms: _111  and  _112
REMARK   42  A    between atoms: _118  and  _120
REMARK   43  A    between atoms: _131  and  _134
REMARK   44  A    between atoms: _134  and  _135
REMARK   45  A    between atoms: _143  and  _144
REMARK   46  A    between atoms: _152  and  _154
REMARK   47  A    between atoms: _154  and  _155
REMARK   48  A    between atoms: _154  and  _157
REMARK   49  A    between atoms: _157  and  _158
REMARK   50  A    between atoms: _158  and  _159
REMARK   51  A    between atoms: _162  and  _164
REMARK   52  A    between atoms: _164  and  _165
REMARK   53  A    between atoms: _164  and  _167
REMARK   54  A    between atoms: _167  and  _168
REMARK   55  A    between atoms: _173  and  _175
REMARK   56  A    between atoms: _175  and  _176
REMARK   57  A    between atoms: _175  and  _178
REMARK   58  A    between atoms: _178  and  _179
REMARK   59  A    between atoms: _179  and  _180
REMARK   60  A    between atoms: _183  and  _185
REMARK   61  A    between atoms: _185  and  _186
REMARK   62  A    between atoms: _185  and  _188
REMARK   63  A    between atoms: _188  and  _189
REMARK   64  A    between atoms: _192  and  _194
REMARK   65  A    between atoms: _194  and  _195
REMARK   66  A    between atoms: _194  and  _197
REMARK   67  A    between atoms: _197  and  _198
REMARK   68  A    between atoms: _199  and  ZN_426
REMARK   69  A    between atoms: _203  and  _205
REMARK   70  A    between atoms: _205  and  _206
REMARK   71  A    between atoms: _205  and  _208
REMARK   72  A    between atoms: _208  and  _209
REMARK   73  A    between atoms: _212  and  _214
REMARK   74  A    between atoms: _214  and  _215
REMARK   75  A    between atoms: _214  and  _217
REMARK   76  A    between atoms: _220  and  _222
REMARK   77  A    between atoms: _222  and  _223
REMARK   78  A    between atoms: _222  and  _225
REMARK   79  A    between atoms: _225  and  _226
REMARK   80  A    between atoms: _231  and  _233
REMARK   81  A    between atoms: _233  and  _234
REMARK   82  A    between atoms: _233  and  _236
REMARK   83  A    between atoms: _236  and  _237
REMARK   84  A    between atoms: _243  and  _245
REMARK   85  A    between atoms: _245  and  _246
REMARK   86  A    between atoms: _248  and  _250
REMARK   87  A    between atoms: _250  and  _251
REMARK   88  A    between atoms: _250  and  _253
REMARK   89  A    between atoms: _256  and  _258
REMARK   90  A    between atoms: _258  and  _259
REMARK   91  A    between atoms: _258  and  _261
REMARK   92  A    between atoms: _261  and  _262
REMARK   93  A    between atoms: _262  and  _263
REMARK   94  A    between atoms: _268  and  _270
REMARK   95  A    between atoms: _270  and  _271
REMARK   96  A    between atoms: _270  and  _273
REMARK   97  A    between atoms: _273  and  _274
REMARK   98  A    between atoms: _277  and  _279
REMARK   99  A    between atoms: _279  and  _280
REMARK  100  A    between atoms: _283  and  _285
REMARK  101  A    between atoms: _285  and  _286
REMARK  102  A    between atoms: _285  and  _288
REMARK  103  A    between atoms: _291  and  _293
REMARK  104  A    between atoms: _293  and  _294
REMARK  105  A    between atoms: _293  and  _296
REMARK  106  A    between atoms: _296  and  _297
REMARK  107  A    between atoms: _300  and  _302
REMARK  108  A    between atoms: _302  and  _303
REMARK  109  A    between atoms: _302  and  _305
REMARK  110  A    between atoms: _305  and  _306
REMARK  111  A    between atoms: _308  and  _310
REMARK  112  A    between atoms: _310  and  _311
REMARK  113  A    between atoms: _310  and  _313
REMARK  114  A    between atoms: _313  and  _314
REMARK  115  A    between atoms: _317  and  _319
REMARK  116  A    between atoms: _319  and  _320
REMARK  117  A    between atoms: _319  and  _322
REMARK  118  A    between atoms: _322  and  _323
REMARK  119  A    between atoms: _326  and  _328
REMARK  120  A    between atoms: _328  and  _329
REMARK  121  A    between atoms: _328  and  _331
REMARK  122  A    between atoms: _331  and  _332
REMARK  123  A    between atoms: _336  and  _337
REMARK  124  A    between atoms: _343  and  _344
REMARK  125  A    between atoms: _349  and  _351
REMARK  126  A    between atoms: _351  and  _352
REMARK  127  A    between atoms: _351  and  _354
REMARK  128  A    between atoms: _354  and  _355
REMARK  129  A    between atoms: _358  and  _360
REMARK  130  A    between atoms: _360  and  _361
REMARK  131  A    between atoms: _360  and  _363
REMARK  132  A    between atoms: _363  and  _364
REMARK  133  A    between atoms: _367  and  _369
REMARK  134  A    between atoms: _369  and  _370
REMARK  135  A    between atoms: _369  and  _372
REMARK  136  A    between atoms: _374  and  _376
REMARK  137  A    between atoms: _376  and  _377
REMARK  138  A    between atoms: _376  and  _379
REMARK  139  A    between atoms: _382  and  _384
REMARK  140  A    between atoms: _384  and  _385
REMARK  141  A    between atoms: _384  and  _387
REMARK  142  A    between atoms: _387  and  _388
REMARK  143  A    between atoms: _398  and  _400
REMARK  144  A    between atoms: _400  and  _401
REMARK  145  A    between atoms: _400  and  _403
REMARK  146  A    between atoms: _403  and  _404
REMARK  147  A    between atoms: _409  and  _411
REMARK  148  A    between atoms: _411  and  _412
REMARK  149  A    between atoms: _411  and  _414
REMARK  150  A    between atoms: _414  and  _415
REMARK  151  A    between atoms: _415  and  _416
REMARK  152  A    between atoms: _416  and  _417
REMARK                            x       y       z     vdW  Elec       q    Type
REMARK                         _______ _______ _______ _____ _____    ______ ____
ROOT
ATOM      1  C   VAL A   1      -2.819  12.776  20.893  0.00  0.00    +0.238 C 
ATOM      2  N   GLN A   2      -3.009  13.986  21.406  0.00  0.00    -0.298 N 
ATOM      3  H   GLN A   2      -3.854  14.529  21.135  0.00  0.00    +0.150 HD
ATOM      4  O   VAL A   1      -1.834  12.096  21.153  0.00  0.00    -0.274 OA
ENDROOT
BRANCH   1   5
ATOM      5  CA  VAL A   1      -3.894  12.242  19.959  0.00  0.00    +0.145 C 
BRANCH   5   6
ATOM      6  CB  VAL A   1      -3.240  11.677  18.665  0.00  0.00    +0.025 C 
ATOM      7  CG2 VAL A   1      -4.233  10.819  17.907  0.00  0.00    +0.002 C 
ATOM      8  CG1 VAL A   1      -2.716  12.795  17.787  0.00  0.00    +0.002 C 
ENDBRANCH   5   6
BRANCH   5   9
ATOM      9  N   VAL A   1      -4.981  13.184  19.688  0.00  0.00    -0.238 NA
ATOM     10  H   VAL A   1      -5.056  13.617  18.746  0.00  0.00    +0.142 HD
ENDBRANCH   5   9
ENDBRANCH   1   5
BRANCH   2  11
ATOM     11  CA  GLN A   2      -2.054  14.567  22.343  0.00  0.00    +0.137 C 
BRANCH  11  12
ATOM     12  C   GLN A   2      -2.641  14.561  23.762  0.00  0.00    +0.227 C 
ATOM     13  O   GLN A   2      -1.982  14.993  24.727  0.00  0.00    -0.286 OA
ENDBRANCH  11  12
BRANCH  11  14
ATOM     14  CB  GLN A   2      -1.697  15.986  21.898  0.00  0.00    +0.037 C 
BRANCH  14  15
ATOM     15  CG  GLN A   2      -1.067  15.991  20.509  0.00  0.00    +0.087 C 
BRANCH  15  16
ATOM     16  CD  GLN A   2      -0.838  17.374  19.945  0.00  0.00    +0.219 C 
ATOM     17  OE1 GLN A   2      -0.545  18.320  20.674  0.00  0.00    -0.275 OA
ATOM     18  NE2 GLN A   2      -0.966  17.499  18.631  0.00  0.00    -0.329 N 
ATOM     19 HE21 GLN A   2      -0.817  18.424  18.180  0.00  0.00    +0.145 HD
ATOM     20 HE22 GLN A   2      -1.215  16.672  18.052  0.00  0.00    +0.145 HD
ENDBRANCH  15  16
ENDBRANCH  14  15
ENDBRANCH  11  14
ENDBRANCH   2  11
TORSDOF 8
REMARK  Name = ../refined-set-2016/1bnv/1bnv_pocket.pdb
REMARK  152 active torsions:
REMARK  status: ('A' for Active; 'I' for Inactive)
REMARK    1  A    between atoms: _1  and  _3
REMARK    2  A    between atoms: _3  and  _4
REMARK    3  A    between atoms: _3  and  _6
REMARK    4  A    between atoms: _6  and  _7
REMARK    5  A    between atoms: _17  and  _19
REMARK    6  A    between atoms: _19  and  _20
REMARK    7  A    between atoms: _19  and  _22
REMARK    8  A    between atoms: _22  and  _23
REMARK    9  A    between atoms: _28  and  _29
REMARK   10  A    between atoms: _31  and  _33
REMARK   11  A    between atoms: _33  and  _34
REMARK   12  A    between atoms: _33  and  _36
REMARK   13  A    between atoms: _36  and  _37
REMARK   14  A    between atoms: _40  and  _41
REMARK   15  A    between atoms: _46  and  _48
REMARK   16  A    between atoms: _48  and  _49
REMARK   17  A    between atoms: _48  and  _51
REMARK   18  A    between atoms: _51  and  _52
REMARK   19  A    between atoms: _57  and  _59
REMARK   20  A    between atoms: _59  and  _60
REMARK   21  A    between atoms: _59  and  _62
REMARK   22  A    between atoms: _62  and  _63
REMARK   23  A    between atoms: _68  and  _70
REMARK   24  A    between atoms: _70  and  _71
REMARK   25  A    between atoms: _74  and  _76
REMARK   26  A    between atoms: _76  and  _77
REMARK   27  A    between atoms: _76  and  _79
REMARK   28  A    between atoms: _79  and  _80
REMARK   29  A    between atoms: _85  and  _87
REMARK   30  A    between atoms: _87  and  _88
REMARK   31  A    between atoms: _87  and  _90
REMARK   32  A    between atoms: _90  and  _91
REMARK   33  A    between atoms: _94  and  _96
REMARK   34  A    between atoms: _96  and  _97
REMARK   35  A    between atoms: _96  and  _99
REMARK   36  A    between atoms: _99  and  _100
REMARK   37  A    between atoms: _100  and  _101
REMARK   38  A    between atoms: _106  and  _108
REMARK   39  A    between atoms: _108  and  _109
REMARK   40  A    between atoms: _108  and  _111
REMARK   41  A    between atoms: _111  and  _112
REMARK   42  A    between atoms: _118  and  _120
REMARK   43  A    between atoms: _131  and  _134
REMARK   44  A    between atoms: _134  and  _135
REMARK   45  A    between atoms: _143  and  _144
REMARK   46  A    between atoms: _152  and  _154
REMARK   47  A    between atoms: _154  and  _155
REMARK   48  A    between atoms: _154  and  _157
REMARK   49  A    between atoms: _157  and  _158
REMARK   50  A    between atoms: _158  and  _159
REMARK   51  A    between atoms: _162  and  _164
REMARK   52  A    between atoms: _164  and  _165
REMARK   53  A    between atoms: _164  and  _167
REMARK   54  A    between atoms: _167  and  _168
REMARK   55  A    between atoms: _173  and  _175
REMARK   56  A    between atoms: _175  and  _176
REMARK   57  A    between atoms: _175  and  _178
REMARK   58  A    between atoms: _178  and  _179
REMARK   59  A    between atoms: _179  and  _180
REMARK   60  A    between atoms: _183  and  _185
REMARK   61  A    between atoms: _185  and  _186
REMARK   62  A    between atoms: _185  and  _188
REMARK   63  A    between atoms: _188  and  _189
REMARK   64  A    between atoms: _192  and  _194
REMARK   65  A    between atoms: _194  and  _195
REMARK   66  A    between atoms: _194  and  _197
REMARK   67  A    between atoms: _197  and  _198
REMARK   68  A    between atoms: _199  and  ZN_426
REMARK   69  A    between atoms: _203  and  _205
REMARK   70  A    between atoms: _205  and  _206
REMARK   71  A    between atoms: _205  and  _208
REMARK   72  A    between atoms: _208  and  _209
REMARK   73  A    between atoms: _212  and  _214
REMARK   74  A    between atoms: _214  and  _215
REMARK   75  A    between atoms: _214  and  _217
REMARK   76  A    between atoms: _220  and  _222
REMARK   77  A    between atoms: _222  and  _223
REMARK   78  A    between atoms: _222  and  _225
REMARK   79  A    between atoms: _225  and  _226
REMARK   80  A    between atoms: _231  and  _233
REMARK   81  A    between atoms: _233  and  _234
REMARK   82  A    between atoms: _233  and  _236
REMARK   83  A    between atoms: _236  and  _237
REMARK   84  A    between atoms: _243  and  _245
REMARK   85  A    between atoms: _245  and  _246
REMARK   86  A    between atoms: _248  and  _250
REMARK   87  A    between atoms: _250  and  _251
REMARK   88  A    between atoms: _250  and  _253
REMARK   89  A    between atoms: _256  and  _258
REMARK   90  A    between atoms: _258  and  _259
REMARK   91  A    between atoms: _258  and  _261
REMARK   92  A    between atoms: _261  and  _262
REMARK   93  A    between atoms: _262  and  _263
REMARK   94  A    between atoms: _268  and  _270
REMARK   95  A    between atoms: _270  and  _271
REMARK   96  A    between atoms: _270  and  _273
REMARK   97  A    between atoms: _273  and  _274
REMARK   98  A    between atoms: _277  and  _279
REMARK   99  A    between atoms: _279  and  _280
REMARK  100  A    between atoms: _283  and  _285
REMARK  101  A    between atoms: _285  and  _286
REMARK  102  A    between atoms: _285  and  _288
REMARK  103  A    between atoms: _291  and  _293
REMARK  104  A    between atoms: _293  and  _294
REMARK  105  A    between atoms: _293  and  _296
REMARK  106  A    between atoms: _296  and  _297
REMARK  107  A    between atoms: _300  and  _302
REMARK  108  A    between atoms: _302  and  _303
REMARK  109  A    between atoms: _302  and  _305
REMARK  110  A    between atoms: _305  and  _306
REMARK  111  A    between atoms: _308  and  _310
REMARK  112  A    between atoms: _310  and  _311
REMARK  113  A    between atoms: _310  and  _313
REMARK  114  A    between atoms: _313  and  _314
REMARK  115  A    between atoms: _317  and  _319
REMARK  116  A    between atoms: _319  and  _320
REMARK  117  A    between atoms: _319  and  _322
REMARK  118  A    between atoms: _322  and  _323
REMARK  119  A    between atoms: _326  and  _328
REMARK  120  A    between atoms: _328  and  _329
REMARK  121  A    between atoms: _328  and  _331
REMARK  122  A    between atoms: _331  and  _332
REMARK  123  A    between atoms: _336  and  _337
REMARK  124  A    between atoms: _343  and  _344
REMARK  125  A    between atoms: _349  and  _351
REMARK  126  A    between atoms: _351  and  _352
REMARK  127  A    between atoms: _351  and  _354
REMARK  128  A    between atoms: _354  and  _355
REMARK  129  A    between atoms: _358  and  _360
REMARK  130  A    between atoms: _360  and  _361
REMARK  131  A    between atoms: _360  and  _363
REMARK  132  A    between atoms: _363  and  _364
REMARK  133  A    between atoms: _367  and  _369
REMARK  134  A    between atoms: _369  and  _370
REMARK  135  A    between atoms: _369  and  _372
REMARK  136  A    between atoms: _374  and  _376
REMARK  137  A    between atoms: _376  and  _377
REMARK  138  A    between atoms: _376  and  _379
REMARK  139  A    between atoms: _382  and  _384
REMARK  140  A    between atoms: _384  and  _385
REMARK  141  A    between atoms: _384  and  _387
REMARK  142  A    between atoms: _387  and  _388
REMARK  143  A    between atoms: _398  and  _400
REMARK  144  A    between atoms: _400  and  _401
REMARK  145  A    between atoms: _400  and  _403
REMARK  146  A    between atoms: _403  and  _404
REMARK  147  A    between atoms: _409  and  _411
REMARK  148  A    between atoms: _411  and  _412
REMARK  149  A    between atoms: _411  and  _414
REMARK  150  A    between atoms: _414  and  _415
REMARK  151  A    between atoms: _415  and  _416
REMARK  152  A    between atoms: _416  and  _417
REMARK                            x       y       z     vdW  Elec       q    Type
REMARK                         _______ _______ _______ _____ _____    ______ ____
ROOT
ATOM      1  C   ALA A   2     -12.422   4.961  21.079  0.00  0.00    +0.241 C 
ATOM      2  N   VAL A   3     -12.079   3.716  21.359  0.00  0.00    -0.297 N 
ATOM      3  H   VAL A   3     -11.758   3.459  22.314  0.00  0.00    +0.150 HD
ATOM      4  O   ALA A   2     -12.728   5.312  19.941  0.00  0.00    -0.273 OA
ENDROOT
BRANCH   1   5
ATOM      5  CA  ALA A   2     -12.330   5.982  22.203  0.00  0.00    +0.149 C 
ATOM      6  CB  ALA A   2     -13.731   6.516  22.542  0.00  0.00    +0.031 C 
BRANCH   5   9
ATOM      7  C   LEU A   1     -10.533   7.643  22.340  0.00  0.00    +0.238 C 
ATOM      8  O   LEU A   1     -10.238   7.347  23.493  0.00  0.00    -0.274 OA
ATOM      9  N   ALA A   2     -11.493   7.040  21.653  0.00  0.00    -0.297 N 
ATOM     10  H   ALA A   2     -11.657   7.338  20.670  0.00  0.00    +0.150 HD
BRANCH   7  11
ATOM     11  CA  LEU A   1      -9.742   8.681  21.572  0.00  0.00    +0.145 C 
BRANCH  11  12
ATOM     12  N   LEU A   1      -9.065   9.642  22.441  0.00  0.00    -0.238 NA
ATOM     13  H   LEU A   1      -8.501   9.295  23.243  0.00  0.00    +0.142 HD
ENDBRANCH  11  12
BRANCH  11  14
ATOM     14  CB  LEU A   1      -8.737   7.916  20.703  0.00  0.00    +0.026 C 
BRANCH  14  15
ATOM     15  CG  LEU A   1      -7.601   8.592  19.929  0.00  0.00    +0.002 C 
ATOM     16  CD2 LEU A   1      -6.852   7.517  19.143  0.00  0.00    +0.000 C 
ATOM     17  CD1 LEU A   1      -8.125   9.680  18.997  0.00  0.00    +0.000 C 
ENDBRANCH  14  15
ENDBRANCH  11  14
ENDBRANCH   7  11
ENDBRANCH   5   9
ENDBRANCH   1   5
BRANCH   2  18
ATOM     18  CA  VAL A   3     -12.157   2.716  20.316  0.00  0.00    +0.149 C 
BRANCH  18  19
ATOM     19  C   VAL A   3     -13.115   1.618  20.748  0.00  0.00    +0.241 C 
ATOM     20  O   VAL A   3     -13.027   1.096  21.872  0.00  0.00    -0.273 OA
ATOM     21  N   LEU A   4     -14.068   1.329  19.867  0.00  0.00    -0.298 N 
ATOM     22  H   LEU A   4     -14.104   1.865  18.976  0.00  0.00    +0.150 HD
BRANCH  21  23
ATOM     23  CA  LEU A   4     -15.055   0.301  20.098  0.00  0.00    +0.137 C 
BRANCH  23  24
ATOM     24  C   LEU A   4     -14.517  -0.994  19.520  0.00  0.00    +0.227 C 
ATOM     25  O   LEU A   4     -14.427  -1.135  18.307  0.00  0.00    -0.286 OA
ENDBRANCH  23  24
BRANCH  23  26
ATOM     26  CB  LEU A   4     -16.351   0.679  19.392  0.00  0.00    +0.028 C 
BRANCH  26  27
ATOM     27  CG  LEU A   4     -17.605   0.751  20.251  0.00  0.00    +0.002 C 
ATOM     28  CD2 LEU A   4     -17.756  -0.539  21.028  0.00  0.00    +0.000 C 
ATOM     29  CD1 LEU A   4     -18.810   1.001  19.350  0.00  0.00    +0.000 C 
ENDBRANCH  26  27
ENDBRANCH  23  26
ENDBRANCH  21  23
ENDBRANCH  18  19
BRANCH  18  30
ATOM     30  CB  VAL A   3     -10.765   2.117  19.954  0.00  0.00    +0.027 C 
ATOM     31  CG2 VAL A   3      -9.759   3.232  19.663  0.00  0.00    +0.002 C 
ATOM     32  CG1 VAL A   3     -10.892   1.197  18.746  0.00  0.00    +0.002 C 
ENDBRANCH  18  30
ENDBRANCH   2  18
TORSDOF 13
REMARK  Name = ../refined-set-2016/1bnv/1bnv_pocket.pdb
REMARK  152 active torsions:
REMARK  status: ('A' for Active; 'I' for Inactive)
REMARK    1  A    between atoms: _1  and  _3
REMARK    2  A    between atoms: _3  and  _4
REMARK    3  A    between atoms: _3  and  _6
REMARK    4  A    between atoms: _6  and  _7
REMARK    5  A    between atoms: _17  and  _19
REMARK    6  A    between atoms: _19  and  _20
REMARK    7  A    between atoms: _19  and  _22
REMARK    8  A    between atoms: _22  and  _23
REMARK    9  A    between atoms: _28  and  _29
REMARK   10  A    between atoms: _31  and  _33
REMARK   11  A    between atoms: _33  and  _34
REMARK   12  A    between atoms: _33  and  _36
REMARK   13  A    between atoms: _36  and  _37
REMARK   14  A    between atoms: _40  and  _41
REMARK   15  A    between atoms: _46  and  _48
REMARK   16  A    between atoms: _48  and  _49
REMARK   17  A    between atoms: _48  and  _51
REMARK   18  A    between atoms: _51  and  _52
REMARK   19  A    between atoms: _57  and  _59
REMARK   20  A    between atoms: _59  and  _60
REMARK   21  A    between atoms: _59  and  _62
REMARK   22  A    between atoms: _62  and  _63
REMARK   23  A    between atoms: _68  and  _70
REMARK   24  A    between atoms: _70  and  _71
REMARK   25  A    between atoms: _74  and  _76
REMARK   26  A    between atoms: _76  and  _77
REMARK   27  A    between atoms: _76  and  _79
REMARK   28  A    between atoms: _79  and  _80
REMARK   29  A    between atoms: _85  and  _87
REMARK   30  A    between atoms: _87  and  _88
REMARK   31  A    between atoms: _87  and  _90
REMARK   32  A    between atoms: _90  and  _91
REMARK   33  A    between atoms: _94  and  _96
REMARK   34  A    between atoms: _96  and  _97
REMARK   35  A    between atoms: _96  and  _99
REMARK   36  A    between atoms: _99  and  _100
REMARK   37  A    between atoms: _100  and  _101
REMARK   38  A    between atoms: _106  and  _108
REMARK   39  A    between atoms: _108  and  _109
REMARK   40  A    between atoms: _108  and  _111
REMARK   41  A    between atoms: _111  and  _112
REMARK   42  A    between atoms: _118  and  _120
REMARK   43  A    between atoms: _131  and  _134
REMARK   44  A    between atoms: _134  and  _135
REMARK   45  A    between atoms: _143  and  _144
REMARK   46  A    between atoms: _152  and  _154
REMARK   47  A    between atoms: _154  and  _155
REMARK   48  A    between atoms: _154  and  _157
REMARK   49  A    between atoms: _157  and  _158
REMARK   50  A    between atoms: _158  and  _159
REMARK   51  A    between atoms: _162  and  _164
REMARK   52  A    between atoms: _164  and  _165
REMARK   53  A    between atoms: _164  and  _167
REMARK   54  A    between atoms: _167  and  _168
REMARK   55  A    between atoms: _173  and  _175
REMARK   56  A    between atoms: _175  and  _176
REMARK   57  A    between atoms: _175  and  _178
REMARK   58  A    between atoms: _178  and  _179
REMARK   59  A    between atoms: _179  and  _180
REMARK   60  A    between atoms: _183  and  _185
REMARK   61  A    between atoms: _185  and  _186
REMARK   62  A    between atoms: _185  and  _188
REMARK   63  A    between atoms: _188  and  _189
REMARK   64  A    between atoms: _192  and  _194
REMARK   65  A    between atoms: _194  and  _195
REMARK   66  A    between atoms: _194  and  _197
REMARK   67  A    between atoms: _197  and  _198
REMARK   68  A    between atoms: _199  and  ZN_426
REMARK   69  A    between atoms: _203  and  _205
REMARK   70  A    between atoms: _205  and  _206
REMARK   71  A    between atoms: _205  and  _208
REMARK   72  A    between atoms: _208  and  _209
REMARK   73  A    between atoms: _212  and  _214
REMARK   74  A    between atoms: _214  and  _215
REMARK   75  A    between atoms: _214  and  _217
REMARK   76  A    between atoms: _220  and  _222
REMARK   77  A    between atoms: _222  and  _223
REMARK   78  A    between atoms: _222  and  _225
REMARK   79  A    between atoms: _225  and  _226
REMARK   80  A    between atoms: _231  and  _233
REMARK   81  A    between atoms: _233  and  _234
REMARK   82  A    between atoms: _233  and  _236
REMARK   83  A    between atoms: _236  and  _237
REMARK   84  A    between atoms: _243  and  _245
REMARK   85  A    between atoms: _245  and  _246
REMARK   86  A    between atoms: _248  and  _250
REMARK   87  A    between atoms: _250  and  _251
REMARK   88  A    between atoms: _250  and  _253
REMARK   89  A    between atoms: _256  and  _258
REMARK   90  A    between atoms: _258  and  _259
REMARK   91  A    between atoms: _258  and  _261
REMARK   92  A    between atoms: _261  and  _262
REMARK   93  A    between atoms: _262  and  _263
REMARK   94  A    between atoms: _268  and  _270
REMARK   95  A    between atoms: _270  and  _271
REMARK   96  A    between atoms: _270  and  _273
REMARK   97  A    between atoms: _273  and  _274
REMARK   98  A    between atoms: _277  and  _279
REMARK   99  A    between atoms: _279  and  _280
REMARK  100  A    between atoms: _283  and  _285
REMARK  101  A    between atoms: _285  and  _286
REMARK  102  A    between atoms: _285  and  _288
REMARK  103  A    between atoms: _291  and  _293
REMARK  104  A    between atoms: _293  and  _294
REMARK  105  A    between atoms: _293  and  _296
REMARK  106  A    between atoms: _296  and  _297
REMARK  107  A    between atoms: _300  and  _302
REMARK  108  A    between atoms: _302  and  _303
REMARK  109  A    between atoms: _302  and  _305
REMARK  110  A    between atoms: _305  and  _306
REMARK  111  A    between atoms: _308  and  _310
REMARK  112  A    between atoms: _310  and  _311
REMARK  113  A    between atoms: _310  and  _313
REMARK  114  A    between atoms: _313  and  _314
REMARK  115  A    between atoms: _317  and  _319
REMARK  116  A    between atoms: _319  and  _320
REMARK  117  A    between atoms: _319  and  _322
REMARK  118  A    between atoms: _322  and  _323
REMARK  119  A    between atoms: _326  and  _328
REMARK  120  A    between atoms: _328  and  _329
REMARK  121  A    between atoms: _328  and  _331
REMARK  122  A    between atoms: _331  and  _332
REMARK  123  A    between atoms: _336  and  _337
REMARK  124  A    between atoms: _343  and  _344
REMARK  125  A    between atoms: _349  and  _351
REMARK  126  A    between atoms: _351  and  _352
REMARK  127  A    between atoms: _351  and  _354
REMARK  128  A    between atoms: _354  and  _355
REMARK  129  A    between atoms: _358  and  _360
REMARK  130  A    between atoms: _360  and  _361
REMARK  131  A    between atoms: _360  and  _363
REMARK  132  A    between atoms: _363  and  _364
REMARK  133  A    between atoms: _367  and  _369
REMARK  134  A    between atoms: _369  and  _370
REMARK  135  A    between atoms: _369  and  _372
REMARK  136  A    between atoms: _374  and  _376
REMARK  137  A    between atoms: _376  and  _377
REMARK  138  A    between atoms: _376  and  _379
REMARK  139  A    between atoms: _382  and  _384
REMARK  140  A    between atoms: _384  and  _385
REMARK  141  A    between atoms: _384  and  _387
REMARK  142  A    between atoms: _387  and  _388
REMARK  143  A    between atoms: _398  and  _400
REMARK  144  A    between atoms: _400  and  _401
REMARK  145  A    between atoms: _400  and  _403
REMARK  146  A    between atoms: _403  and  _404
REMARK  147  A    between atoms: _409  and  _411
REMARK  148  A    between atoms: _411  and  _412
REMARK  149  A    between atoms: _411  and  _414
REMARK  150  A    between atoms: _414  and  _415
REMARK  151  A    between atoms: _415  and  _416
REMARK  152  A    between atoms: _416  and  _417
REMARK                            x       y       z     vdW  Elec       q    Type
REMARK                         _______ _______ _______ _____ _____    ______ ____
ROOT
ATOM      1  C   THR A   4       0.884   1.266  16.627  0.00  0.00    +0.246 C 
ATOM      2  O   THR A   4       0.453   2.163  17.358  0.00  0.00    -0.273 OA
ATOM      3  N   PRO A   5       2.114   1.320  16.082  0.00  0.00    -0.272 N 
ATOM      4  CA  PRO A   5       2.927   2.516  16.293  0.00  0.00    +0.152 C 
ATOM      5  CB  PRO A   5       4.143   2.237  15.425  0.00  0.00    +0.031 C 
ATOM      6  CG  PRO A   5       4.334   0.782  15.633  0.00  0.00    +0.024 C 
ATOM      7  CD  PRO A   5       2.918   0.260  15.451  0.00  0.00    +0.094 C 
ENDROOT
BRANCH   4   8
ATOM      8  C   PRO A   5       2.086   3.652  15.750  0.00  0.00    +0.244 C 
ATOM      9  N   PRO A   6       2.225   4.871  16.303  0.00  0.00    -0.272 N 
ATOM     10  CA  PRO A   6       3.098   5.323  17.390  0.00  0.00    +0.152 C 
ATOM     11  CB  PRO A   6       3.035   6.836  17.246  0.00  0.00    +0.031 C 
ATOM     12  CG  PRO A   6       1.592   7.063  16.822  0.00  0.00    +0.024 C 
ATOM     13  CD  PRO A   6       1.359   5.969  15.820  0.00  0.00    +0.094 C 
ATOM     14  O   PRO A   5       1.341   3.453  14.783  0.00  0.00    -0.273 OA
BRANCH  10  15
ATOM     15  C   PRO A   6       2.784   4.866  18.822  0.00  0.00    +0.241 C 
ATOM     16  O   PRO A   6       3.394   5.358  19.763  0.00  0.00    -0.273 OA
ATOM     17  N   LEU A   7       1.823   3.961  18.990  0.00  0.00    -0.297 N 
ATOM     18  H   LEU A   7       1.307   3.618  18.155  0.00  0.00    +0.150 HD
BRANCH  17  19
ATOM     19  CA  LEU A   7       1.463   3.427  20.313  0.00  0.00    +0.149 C 
BRANCH  19  20
ATOM     20  C   LEU A   7       1.096   4.434  21.417  0.00  0.00    +0.241 C 
ATOM     21  O   LEU A   7       1.325   4.188  22.601  0.00  0.00    -0.273 OA
ATOM     22  N   LEU A   8       0.467   5.536  21.029  0.00  0.00    -0.298 N 
ATOM     23  H   LEU A   8       0.256   5.662  20.019  0.00  0.00    +0.150 HD
BRANCH  22  24
ATOM     24  CA  LEU A   8       0.060   6.579  21.969  0.00  0.00    +0.137 C 
BRANCH  24  25
ATOM     25  C   LEU A   8      -0.982   6.135  23.018  0.00  0.00    +0.227 C 
ATOM     26  O   LEU A   8      -1.958   5.447  22.699  0.00  0.00    -0.286 OA
ENDBRANCH  24  25
BRANCH  24  27
ATOM     27  CB  LEU A   8      -0.463   7.781  21.178  0.00  0.00    +0.028 C 
BRANCH  27  28
ATOM     28  CG  LEU A   8       0.515   8.347  20.141  0.00  0.00    +0.002 C 
ATOM     29  CD2 LEU A   8       1.849   8.691  20.801  0.00  0.00    +0.000 C 
ATOM     30  CD1 LEU A   8      -0.095   9.585  19.484  0.00  0.00    +0.000 C 
ENDBRANCH  27  28
ENDBRANCH  24  27
ENDBRANCH  22  24
ENDBRANCH  19  20
BRANCH  19  31
ATOM     31  CB  LEU A   7       2.569   2.503  20.816  0.00  0.00    +0.029 C 
BRANCH  31  32
ATOM     32  CG  LEU A   7       2.901   1.311  19.923  0.00  0.00    +0.002 C 
ATOM     33  CD2 LEU A   7       4.179   0.648  20.409  0.00  0.00    +0.000 C 
ATOM     34  CD1 LEU A   7       1.733   0.332  19.896  0.00  0.00    +0.000 C 
ENDBRANCH  31  32
ENDBRANCH  19  31
ENDBRANCH  17  19
ENDBRANCH  10  15
ENDBRANCH   4   8
BRANCH   1  35
ATOM     35  CA  THR A   4       0.056   0.015  16.372  0.00  0.00    +0.176 C 
BRANCH  35  38
ATOM     36  C   THR A   3      -1.033  -1.203  18.190  0.00  0.00    +0.243 C 
ATOM     37  O   THR A   3      -0.302  -2.191  18.038  0.00  0.00    -0.273 OA
ATOM     38  N   THR A   4      -0.939  -0.110  17.432  0.00  0.00    -0.295 N 
ATOM     39  H   THR A   4      -1.596   0.678  17.602  0.00  0.00    +0.150 HD
BRANCH  36  40
ATOM     40  CA  THR A   3      -2.115  -1.184  19.273  0.00  0.00    +0.176 C 
BRANCH  40  43
ATOM     41  C   LEU A   2      -2.415   1.063  20.060  0.00  0.00    +0.241 C 
ATOM     42  O   LEU A   2      -1.428   0.961  20.799  0.00  0.00    -0.273 OA
ATOM     43  N   THR A   3      -2.829   0.074  19.287  0.00  0.00    -0.295 N 
ATOM     44  H   THR A   3      -3.670   0.200  18.688  0.00  0.00    +0.150 HD
BRANCH  41  45
ATOM     45  CA  LEU A   2      -3.215   2.350  20.031  0.00  0.00    +0.149 C 
BRANCH  45  48
ATOM     46  C   SER A   1      -3.634   2.334  22.417  0.00  0.00    +0.241 C 
ATOM     47  O   SER A   1      -4.491   1.461  22.294  0.00  0.00    -0.274 OA
ATOM     48  N   LEU A   2      -2.995   2.862  21.380  0.00  0.00    -0.297 N 
ATOM     49  H   LEU A   2      -2.331   3.648  21.530  0.00  0.00    +0.150 HD
BRANCH  46  50
ATOM     50  CA  SER A   1      -3.260   2.882  23.789  0.00  0.00    +0.174 C 
BRANCH  50  51
ATOM     51  N   SER A   1      -3.974   2.218  24.890  0.00  0.00    -0.236 NA
ATOM     52  H   SER A   1      -4.107   1.187  24.853  0.00  0.00    +0.142 HD
ENDBRANCH  50  51
BRANCH  50  53
ATOM     53  CB  SER A   1      -1.753   2.651  23.961  0.00  0.00    +0.163 C 
BRANCH  53  54
ATOM     54  OG  SER A   1      -1.431   1.263  23.837  0.00  0.00    -0.380 OA
ATOM     55  H   SER A   1      -1.702   0.941  22.941  0.00  0.00    +0.211 HD
ENDBRANCH  53  54
ENDBRANCH  50  53
ENDBRANCH  46  50
ENDBRANCH  45  48
BRANCH  45  56
ATOM     56  CB  LEU A   2      -2.606   3.275  18.991  0.00  0.00    +0.029 C 
BRANCH  56  57
ATOM     57  CG  LEU A   2      -3.115   4.713  18.989  0.00  0.00    +0.002 C 
ATOM     58  CD2 LEU A   2      -4.552   4.746  18.505  0.00  0.00    +0.000 C 
ATOM     59  CD1 LEU A   2      -2.218   5.563  18.116  0.00  0.00    +0.000 C 
ENDBRANCH  56  57
ENDBRANCH  45  56
ENDBRANCH  41  45
ENDBRANCH  40  43
BRANCH  40  60
ATOM     60  CB  THR A   3      -3.085  -2.328  19.065  0.00  0.00    +0.137 C 
ATOM     61  CG2 THR A   3      -4.093  -2.371  20.199  0.00  0.00    +0.034 C 
BRANCH  60  62
ATOM     62  OG1 THR A   3      -3.788  -2.126  17.838  0.00  0.00    -0.382 OA
ATOM     63  HG1 THR A   3      -4.424  -2.871  17.697  0.00  0.00    +0.210 HD
ENDBRANCH  60  62
ENDBRANCH  40  60
ENDBRANCH  36  40
ENDBRANCH  35  38
BRANCH  35  64
ATOM     64  CB  THR A   4      -0.613   0.193  14.985  0.00  0.00    +0.137 C 
ATOM     65  CG2 THR A   4      -1.449  -1.027  14.605  0.00  0.00    +0.034 C 
BRANCH  64  66
ATOM     66  OG1 THR A   4      -1.452   1.357  15.010  0.00  0.00    -0.382 OA
ATOM     67  HG1 THR A   4      -0.903   2.154  15.219  0.00  0.00    +0.210 HD
ENDBRANCH  64  66
ENDBRANCH  35  64
ENDBRANCH   1  35
TORSDOF 26
REMARK  Name = ../refined-set-2016/1bnv/1bnv_pocket.pdb
REMARK  152 active torsions:
REMARK  status: ('A' for Active; 'I' for Inactive)
REMARK    1  A    between atoms: _1  and  _3
REMARK    2  A    between atoms: _3  and  _4
REMARK    3  A    between atoms: _3  and  _6
REMARK    4  A    between atoms: _6  and  _7
REMARK    5  A    between atoms: _17  and  _19
REMARK    6  A    between atoms: _19  and  _20
REMARK    7  A    between atoms: _19  and  _22
REMARK    8  A    between atoms: _22  and  _23
REMARK    9  A    between atoms: _28  and  _29
REMARK   10  A    between atoms: _31  and  _33
REMARK   11  A    between atoms: _33  and  _34
REMARK   12  A    between atoms: _33  and  _36
REMARK   13  A    between atoms: _36  and  _37
REMARK   14  A    between atoms: _40  and  _41
REMARK   15  A    between atoms: _46  and  _48
REMARK   16  A    between atoms: _48  and  _49
REMARK   17  A    between atoms: _48  and  _51
REMARK   18  A    between atoms: _51  and  _52
REMARK   19  A    between atoms: _57  and  _59
REMARK   20  A    between atoms: _59  and  _60
REMARK   21  A    between atoms: _59  and  _62
REMARK   22  A    between atoms: _62  and  _63
REMARK   23  A    between atoms: _68  and  _70
REMARK   24  A    between atoms: _70  and  _71
REMARK   25  A    between atoms: _74  and  _76
REMARK   26  A    between atoms: _76  and  _77
REMARK   27  A    between atoms: _76  and  _79
REMARK   28  A    between atoms: _79  and  _80
REMARK   29  A    between atoms: _85  and  _87
REMARK   30  A    between atoms: _87  and  _88
REMARK   31  A    between atoms: _87  and  _90
REMARK   32  A    between atoms: _90  and  _91
REMARK   33  A    between atoms: _94  and  _96
REMARK   34  A    between atoms: _96  and  _97
REMARK   35  A    between atoms: _96  and  _99
REMARK   36  A    between atoms: _99  and  _100
REMARK   37  A    between atoms: _100  and  _101
REMARK   38  A    between atoms: _106  and  _108
REMARK   39  A    between atoms: _108  and  _109
REMARK   40  A    between atoms: _108  and  _111
REMARK   41  A    between atoms: _111  and  _112
REMARK   42  A    between atoms: _118  and  _120
REMARK   43  A    between atoms: _131  and  _134
REMARK   44  A    between atoms: _134  and  _135
REMARK   45  A    between atoms: _143  and  _144
REMARK   46  A    between atoms: _152  and  _154
REMARK   47  A    between atoms: _154  and  _155
REMARK   48  A    between atoms: _154  and  _157
REMARK   49  A    between atoms: _157  and  _158
REMARK   50  A    between atoms: _158  and  _159
REMARK   51  A    between atoms: _162  and  _164
REMARK   52  A    between atoms: _164  and  _165
REMARK   53  A    between atoms: _164  and  _167
REMARK   54  A    between atoms: _167  and  _168
REMARK   55  A    between atoms: _173  and  _175
REMARK   56  A    between atoms: _175  and  _176
REMARK   57  A    between atoms: _175  and  _178
REMARK   58  A    between atoms: _178  and  _179
REMARK   59  A    between atoms: _179  and  _180
REMARK   60  A    between atoms: _183  and  _185
REMARK   61  A    between atoms: _185  and  _186
REMARK   62  A    between atoms: _185  and  _188
REMARK   63  A    between atoms: _188  and  _189
REMARK   64  A    between atoms: _192  and  _194
REMARK   65  A    between atoms: _194  and  _195
REMARK   66  A    between atoms: _194  and  _197
REMARK   67  A    between atoms: _197  and  _198
REMARK   68  A    between atoms: _199  and  ZN_426
REMARK   69  A    between atoms: _203  and  _205
REMARK   70  A    between atoms: _205  and  _206
REMARK   71  A    between atoms: _205  and  _208
REMARK   72  A    between atoms: _208  and  _209
REMARK   73  A    between atoms: _212  and  _214
REMARK   74  A    between atoms: _214  and  _215
REMARK   75  A    between atoms: _214  and  _217
REMARK   76  A    between atoms: _220  and  _222
REMARK   77  A    between atoms: _222  and  _223
REMARK   78  A    between atoms: _222  and  _225
REMARK   79  A    between atoms: _225  and  _226
REMARK   80  A    between atoms: _231  and  _233
REMARK   81  A    between atoms: _233  and  _234
REMARK   82  A    between atoms: _233  and  _236
REMARK   83  A    between atoms: _236  and  _237
REMARK   84  A    between atoms: _243  and  _245
REMARK   85  A    between atoms: _245  and  _246
REMARK   86  A    between atoms: _248  and  _250
REMARK   87  A    between atoms: _250  and  _251
REMARK   88  A    between atoms: _250  and  _253
REMARK   89  A    between atoms: _256  and  _258
REMARK   90  A    between atoms: _258  and  _259
REMARK   91  A    between atoms: _258  and  _261
REMARK   92  A    between atoms: _261  and  _262
REMARK   93  A    between atoms: _262  and  _263
REMARK   94  A    between atoms: _268  and  _270
REMARK   95  A    between atoms: _270  and  _271
REMARK   96  A    between atoms: _270  and  _273
REMARK   97  A    between atoms: _273  and  _274
REMARK   98  A    between atoms: _277  and  _279
REMARK   99  A    between atoms: _279  and  _280
REMARK  100  A    between atoms: _283  and  _285
REMARK  101  A    between atoms: _285  and  _286
REMARK  102  A    between atoms: _285  and  _288
REMARK  103  A    between atoms: _291  and  _293
REMARK  104  A    between atoms: _293  and  _294
REMARK  105  A    between atoms: _293  and  _296
REMARK  106  A    between atoms: _296  and  _297
REMARK  107  A    between atoms: _300  and  _302
REMARK  108  A    between atoms: _302  and  _303
REMARK  109  A    between atoms: _302  and  _305
REMARK  110  A    between atoms: _305  and  _306
REMARK  111  A    between atoms: _308  and  _310
REMARK  112  A    between atoms: _310  and  _311
REMARK  113  A    between atoms: _310  and  _313
REMARK  114  A    between atoms: _313  and  _314
REMARK  115  A    between atoms: _317  and  _319
REMARK  116  A    between atoms: _319  and  _320
REMARK  117  A    between atoms: _319  and  _322
REMARK  118  A    between atoms: _322  and  _323
REMARK  119  A    between atoms: _326  and  _328
REMARK  120  A    between atoms: _328  and  _329
REMARK  121  A    between atoms: _328  and  _331
REMARK  122  A    between atoms: _331  and  _332
REMARK  123  A    between atoms: _336  and  _337
REMARK  124  A    between atoms: _343  and  _344
REMARK  125  A    between atoms: _349  and  _351
REMARK  126  A    between atoms: _351  and  _352
REMARK  127  A    between atoms: _351  and  _354
REMARK  128  A    between atoms: _354  and  _355
REMARK  129  A    between atoms: _358  and  _360
REMARK  130  A    between atoms: _360  and  _361
REMARK  131  A    between atoms: _360  and  _363
REMARK  132  A    between atoms: _363  and  _364
REMARK  133  A    between atoms: _367  and  _369
REMARK  134  A    between atoms: _369  and  _370
REMARK  135  A    between atoms: _369  and  _372
REMARK  136  A    between atoms: _374  and  _376
REMARK  137  A    between atoms: _376  and  _377
REMARK  138  A    between atoms: _376  and  _379
REMARK  139  A    between atoms: _382  and  _384
REMARK  140  A    between atoms: _384  and  _385
REMARK  141  A    between atoms: _384  and  _387
REMARK  142  A    between atoms: _387  and  _388
REMARK  143  A    between atoms: _398  and  _400
REMARK  144  A    between atoms: _400  and  _401
REMARK  145  A    between atoms: _400  and  _403
REMARK  146  A    between atoms: _403  and  _404
REMARK  147  A    between atoms: _409  and  _411
REMARK  148  A    between atoms: _411  and  _412
REMARK  149  A    between atoms: _411  and  _414
REMARK  150  A    between atoms: _414  and  _415
REMARK  151  A    between atoms: _415  and  _416
REMARK  152  A    between atoms: _416  and  _417
REMARK                            x       y       z     vdW  Elec       q    Type
REMARK                         _______ _______ _______ _____ _____    ______ ____
ROOT
ATOM      1  C   CYS A   1      -6.139   7.617  24.336  0.00  0.00    +0.239 C 
ATOM      2  N   VAL A   2      -6.199   6.304  24.533  0.00  0.00    -0.298 N 
ATOM      3  H   VAL A   2      -5.357   5.791  24.863  0.00  0.00    +0.150 HD
ATOM      4  O   CYS A   1      -7.136   8.309  24.118  0.00  0.00    -0.274 OA
ENDROOT
BRANCH   1   5
ATOM      5  CA  CYS A   1      -4.780   8.280  24.458  0.00  0.00    +0.156 C 
BRANCH   5   6
ATOM      6  N   CYS A   1      -3.706   7.281  24.522  0.00  0.00    -0.237 NA
ATOM      7  H   CYS A   1      -3.673   6.537  23.796  0.00  0.00    +0.142 HD
ENDBRANCH   5   6
BRANCH   5   8
ATOM      8  CB  CYS A   1      -4.623   9.136  23.178  0.00  0.00    +0.095 C 
ATOM      9  SG  CYS A   1      -2.922   9.627  22.658  0.00  0.00    -0.080 S 
ENDBRANCH   5   8
ENDBRANCH   1   5
BRANCH   2  10
ATOM     10  CA  VAL A   2      -7.439   5.582  24.288  0.00  0.00    +0.137 C 
BRANCH  10  11
ATOM     11  CB  VAL A   2      -7.201   4.434  23.247  0.00  0.00    +0.026 C 
ATOM     12  CG2 VAL A   2      -8.532   3.875  22.753  0.00  0.00    +0.002 C 
ATOM     13  CG1 VAL A   2      -6.345   4.918  22.072  0.00  0.00    +0.002 C 
ENDBRANCH  10  11
BRANCH  10  14
ATOM     14  C   VAL A   2      -8.254   4.979  25.419  0.00  0.00    +0.227 C 
ATOM     15  O   VAL A   2      -7.737   4.313  26.307  0.00  0.00    -0.286 OA
ENDBRANCH  10  14
ENDBRANCH   2  10
TORSDOF 6
REMARK  Name = ../refined-set-2016/1bnv/1bnv_pocket.pdb
REMARK  152 active torsions:
REMARK  status: ('A' for Active; 'I' for Inactive)
REMARK    1  A    between atoms: _1  and  _3
REMARK    2  A    between atoms: _3  and  _4
REMARK    3  A    between atoms: _3  and  _6
REMARK    4  A    between atoms: _6  and  _7
REMARK    5  A    between atoms: _17  and  _19
REMARK    6  A    between atoms: _19  and  _20
REMARK    7  A    between atoms: _19  and  _22
REMARK    8  A    between atoms: _22  and  _23
REMARK    9  A    between atoms: _28  and  _29
REMARK   10  A    between atoms: _31  and  _33
REMARK   11  A    between atoms: _33  and  _34
REMARK   12  A    between atoms: _33  and  _36
REMARK   13  A    between atoms: _36  and  _37
REMARK   14  A    between atoms: _40  and  _41
REMARK   15  A    between atoms: _46  and  _48
REMARK   16  A    between atoms: _48  and  _49
REMARK   17  A    between atoms: _48  and  _51
REMARK   18  A    between atoms: _51  and  _52
REMARK   19  A    between atoms: _57  and  _59
REMARK   20  A    between atoms: _59  and  _60
REMARK   21  A    between atoms: _59  and  _62
REMARK   22  A    between atoms: _62  and  _63
REMARK   23  A    between atoms: _68  and  _70
REMARK   24  A    between atoms: _70  and  _71
REMARK   25  A    between atoms: _74  and  _76
REMARK   26  A    between atoms: _76  and  _77
REMARK   27  A    between atoms: _76  and  _79
REMARK   28  A    between atoms: _79  and  _80
REMARK   29  A    between atoms: _85  and  _87
REMARK   30  A    between atoms: _87  and  _88
REMARK   31  A    between atoms: _87  and  _90
REMARK   32  A    between atoms: _90  and  _91
REMARK   33  A    between atoms: _94  and  _96
REMARK   34  A    between atoms: _96  and  _97
REMARK   35  A    between atoms: _96  and  _99
REMARK   36  A    between atoms: _99  and  _100
REMARK   37  A    between atoms: _100  and  _101
REMARK   38  A    between atoms: _106  and  _108
REMARK   39  A    between atoms: _108  and  _109
REMARK   40  A    between atoms: _108  and  _111
REMARK   41  A    between atoms: _111  and  _112
REMARK   42  A    between atoms: _118  and  _120
REMARK   43  A    between atoms: _131  and  _134
REMARK   44  A    between atoms: _134  and  _135
REMARK   45  A    between atoms: _143  and  _144
REMARK   46  A    between atoms: _152  and  _154
REMARK   47  A    between atoms: _154  and  _155
REMARK   48  A    between atoms: _154  and  _157
REMARK   49  A    between atoms: _157  and  _158
REMARK   50  A    between atoms: _158  and  _159
REMARK   51  A    between atoms: _162  and  _164
REMARK   52  A    between atoms: _164  and  _165
REMARK   53  A    between atoms: _164  and  _167
REMARK   54  A    between atoms: _167  and  _168
REMARK   55  A    between atoms: _173  and  _175
REMARK   56  A    between atoms: _175  and  _176
REMARK   57  A    between atoms: _175  and  _178
REMARK   58  A    between atoms: _178  and  _179
REMARK   59  A    between atoms: _179  and  _180
REMARK   60  A    between atoms: _183  and  _185
REMARK   61  A    between atoms: _185  and  _186
REMARK   62  A    between atoms: _185  and  _188
REMARK   63  A    between atoms: _188  and  _189
REMARK   64  A    between atoms: _192  and  _194
REMARK   65  A    between atoms: _194  and  _195
REMARK   66  A    between atoms: _194  and  _197
REMARK   67  A    between atoms: _197  and  _198
REMARK   68  A    between atoms: _199  and  ZN_426
REMARK   69  A    between atoms: _203  and  _205
REMARK   70  A    between atoms: _205  and  _206
REMARK   71  A    between atoms: _205  and  _208
REMARK   72  A    between atoms: _208  and  _209
REMARK   73  A    between atoms: _212  and  _214
REMARK   74  A    between atoms: _214  and  _215
REMARK   75  A    between atoms: _214  and  _217
REMARK   76  A    between atoms: _220  and  _222
REMARK   77  A    between atoms: _222  and  _223
REMARK   78  A    between atoms: _222  and  _225
REMARK   79  A    between atoms: _225  and  _226
REMARK   80  A    between atoms: _231  and  _233
REMARK   81  A    between atoms: _233  and  _234
REMARK   82  A    between atoms: _233  and  _236
REMARK   83  A    between atoms: _236  and  _237
REMARK   84  A    between atoms: _243  and  _245
REMARK   85  A    between atoms: _245  and  _246
REMARK   86  A    between atoms: _248  and  _250
REMARK   87  A    between atoms: _250  and  _251
REMARK   88  A    between atoms: _250  and  _253
REMARK   89  A    between atoms: _256  and  _258
REMARK   90  A    between atoms: _258  and  _259
REMARK   91  A    between atoms: _258  and  _261
REMARK   92  A    between atoms: _261  and  _262
REMARK   93  A    between atoms: _262  and  _263
REMARK   94  A    between atoms: _268  and  _270
REMARK   95  A    between atoms: _270  and  _271
REMARK   96  A    between atoms: _270  and  _273
REMARK   97  A    between atoms: _273  and  _274
REMARK   98  A    between atoms: _277  and  _279
REMARK   99  A    between atoms: _279  and  _280
REMARK  100  A    between atoms: _283  and  _285
REMARK  101  A    between atoms: _285  and  _286
REMARK  102  A    between atoms: _285  and  _288
REMARK  103  A    between atoms: _291  and  _293
REMARK  104  A    between atoms: _293  and  _294
REMARK  105  A    between atoms: _293  and  _296
REMARK  106  A    between atoms: _296  and  _297
REMARK  107  A    between atoms: _300  and  _302
REMARK  108  A    between atoms: _302  and  _303
REMARK  109  A    between atoms: _302  and  _305
REMARK  110  A    between atoms: _305  and  _306
REMARK  111  A    between atoms: _308  and  _310
REMARK  112  A    between atoms: _310  and  _311
REMARK  113  A    between atoms: _310  and  _313
REMARK  114  A    between atoms: _313  and  _314
REMARK  115  A    between atoms: _317  and  _319
REMARK  116  A    between atoms: _319  and  _320
REMARK  117  A    between atoms: _319  and  _322
REMARK  118  A    between atoms: _322  and  _323
REMARK  119  A    between atoms: _326  and  _328
REMARK  120  A    between atoms: _328  and  _329
REMARK  121  A    between atoms: _328  and  _331
REMARK  122  A    between atoms: _331  and  _332
REMARK  123  A    between atoms: _336  and  _337
REMARK  124  A    between atoms: _343  and  _344
REMARK  125  A    between atoms: _349  and  _351
REMARK  126  A    between atoms: _351  and  _352
REMARK  127  A    between atoms: _351  and  _354
REMARK  128  A    between atoms: _354  and  _355
REMARK  129  A    between atoms: _358  and  _360
REMARK  130  A    between atoms: _360  and  _361
REMARK  131  A    between atoms: _360  and  _363
REMARK  132  A    between atoms: _363  and  _364
REMARK  133  A    between atoms: _367  and  _369
REMARK  134  A    between atoms: _369  and  _370
REMARK  135  A    between atoms: _369  and  _372
REMARK  136  A    between atoms: _374  and  _376
REMARK  137  A    between atoms: _376  and  _377
REMARK  138  A    between atoms: _376  and  _379
REMARK  139  A    between atoms: _382  and  _384
REMARK  140  A    between atoms: _384  and  _385
REMARK  141  A    between atoms: _384  and  _387
REMARK  142  A    between atoms: _387  and  _388
REMARK  143  A    between atoms: _398  and  _400
REMARK  144  A    between atoms: _400  and  _401
REMARK  145  A    between atoms: _400  and  _403
REMARK  146  A    between atoms: _403  and  _404
REMARK  147  A    between atoms: _409  and  _411
REMARK  148  A    between atoms: _411  and  _412
REMARK  149  A    between atoms: _411  and  _414
REMARK  150  A    between atoms: _414  and  _415
REMARK  151  A    between atoms: _415  and  _416
REMARK  152  A    between atoms: _416  and  _417
REMARK                            x       y       z     vdW  Elec       q    Type
REMARK                         _______ _______ _______ _____ _____    ______ ____
ROOT
ATOM      1  CG  TRP A   1      -8.971   0.071  24.316  0.00  0.00    -0.002 A 
ATOM      2  CD1 TRP A   1      -7.763   0.692  24.460  0.00  0.00    +0.068 A 
ATOM      3  NE1 TRP A   1      -7.072   0.652  23.275  0.00  0.00    -0.352 N 
ATOM      4  HE1 TRP A   1      -6.129   1.059  23.113  0.00  0.00    +0.166 HD
ATOM      5  CE2 TRP A   1      -7.823  -0.009  22.339  0.00  0.00    +0.056 A 
ATOM      6  CZ2 TRP A   1      -7.545  -0.310  21.006  0.00  0.00    +0.017 A 
ATOM      7  CH2 TRP A   1      -8.502  -0.994  20.298  0.00  0.00    +0.001 A 
ATOM      8  CZ3 TRP A   1      -9.722  -1.379  20.886  0.00  0.00    +0.000 A 
ATOM      9  CE3 TRP A   1      -9.998  -1.081  22.211  0.00  0.00    +0.001 A 
ATOM     10  CD2 TRP A   1      -9.034  -0.385  22.962  0.00  0.00    +0.013 A 
ENDROOT
BRANCH   1  11
ATOM     11  CB  TRP A   1     -10.024  -0.079  25.335  0.00  0.00    +0.053 C 
BRANCH  11  12
ATOM     12  CA  TRP A   1     -11.065   1.022  25.209  0.00  0.00    +0.137 C 
BRANCH  12  13
ATOM     13  N   TRP A   1     -10.618   2.216  25.886  0.00  0.00    -0.239 NA
ATOM     14  H   TRP A   1      -9.964   2.135  26.691  0.00  0.00    +0.142 HD
ENDBRANCH  12  13
BRANCH  12  15
ATOM     15  C   TRP A   1     -12.402   0.528  25.688  0.00  0.00    +0.224 C 
ATOM     16  O   TRP A   1     -12.596   0.301  26.881  0.00  0.00    -0.287 OA
ENDBRANCH  12  15
ENDBRANCH  11  12
ENDBRANCH   1  11
TORSDOF 4
REMARK  Name = ../refined-set-2016/1bnv/1bnv_pocket.pdb
REMARK  152 active torsions:
REMARK  status: ('A' for Active; 'I' for Inactive)
REMARK    1  A    between atoms: _1  and  _3
REMARK    2  A    between atoms: _3  and  _4
REMARK    3  A    between atoms: _3  and  _6
REMARK    4  A    between atoms: _6  and  _7
REMARK    5  A    between atoms: _17  and  _19
REMARK    6  A    between atoms: _19  and  _20
REMARK    7  A    between atoms: _19  and  _22
REMARK    8  A    between atoms: _22  and  _23
REMARK    9  A    between atoms: _28  and  _29
REMARK   10  A    between atoms: _31  and  _33
REMARK   11  A    between atoms: _33  and  _34
REMARK   12  A    between atoms: _33  and  _36
REMARK   13  A    between atoms: _36  and  _37
REMARK   14  A    between atoms: _40  and  _41
REMARK   15  A    between atoms: _46  and  _48
REMARK   16  A    between atoms: _48  and  _49
REMARK   17  A    between atoms: _48  and  _51
REMARK   18  A    between atoms: _51  and  _52
REMARK   19  A    between atoms: _57  and  _59
REMARK   20  A    between atoms: _59  and  _60
REMARK   21  A    between atoms: _59  and  _62
REMARK   22  A    between atoms: _62  and  _63
REMARK   23  A    between atoms: _68  and  _70
REMARK   24  A    between atoms: _70  and  _71
REMARK   25  A    between atoms: _74  and  _76
REMARK   26  A    between atoms: _76  and  _77
REMARK   27  A    between atoms: _76  and  _79
REMARK   28  A    between atoms: _79  and  _80
REMARK   29  A    between atoms: _85  and  _87
REMARK   30  A    between atoms: _87  and  _88
REMARK   31  A    between atoms: _87  and  _90
REMARK   32  A    between atoms: _90  and  _91
REMARK   33  A    between atoms: _94  and  _96
REMARK   34  A    between atoms: _96  and  _97
REMARK   35  A    between atoms: _96  and  _99
REMARK   36  A    between atoms: _99  and  _100
REMARK   37  A    between atoms: _100  and  _101
REMARK   38  A    between atoms: _106  and  _108
REMARK   39  A    between atoms: _108  and  _109
REMARK   40  A    between atoms: _108  and  _111
REMARK   41  A    between atoms: _111  and  _112
REMARK   42  A    between atoms: _118  and  _120
REMARK   43  A    between atoms: _131  and  _134
REMARK   44  A    between atoms: _134  and  _135
REMARK   45  A    between atoms: _143  and  _144
REMARK   46  A    between atoms: _152  and  _154
REMARK   47  A    between atoms: _154  and  _155
REMARK   48  A    between atoms: _154  and  _157
REMARK   49  A    between atoms: _157  and  _158
REMARK   50  A    between atoms: _158  and  _159
REMARK   51  A    between atoms: _162  and  _164
REMARK   52  A    between atoms: _164  and  _165
REMARK   53  A    between atoms: _164  and  _167
REMARK   54  A    between atoms: _167  and  _168
REMARK   55  A    between atoms: _173  and  _175
REMARK   56  A    between atoms: _175  and  _176
REMARK   57  A    between atoms: _175  and  _178
REMARK   58  A    between atoms: _178  and  _179
REMARK   59  A    between atoms: _179  and  _180
REMARK   60  A    between atoms: _183  and  _185
REMARK   61  A    between atoms: _185  and  _186
REMARK   62  A    between atoms: _185  and  _188
REMARK   63  A    between atoms: _188  and  _189
REMARK   64  A    between atoms: _192  and  _194
REMARK   65  A    between atoms: _194  and  _195
REMARK   66  A    between atoms: _194  and  _197
REMARK   67  A    between atoms: _197  and  _198
REMARK   68  A    between atoms: _199  and  ZN_426
REMARK   69  A    between atoms: _203  and  _205
REMARK   70  A    between atoms: _205  and  _206
REMARK   71  A    between atoms: _205  and  _208
REMARK   72  A    between atoms: _208  and  _209
REMARK   73  A    between atoms: _212  and  _214
REMARK   74  A    between atoms: _214  and  _215
REMARK   75  A    between atoms: _214  and  _217
REMARK   76  A    between atoms: _220  and  _222
REMARK   77  A    between atoms: _222  and  _223
REMARK   78  A    between atoms: _222  and  _225
REMARK   79  A    between atoms: _225  and  _226
REMARK   80  A    between atoms: _231  and  _233
REMARK   81  A    between atoms: _233  and  _234
REMARK   82  A    between atoms: _233  and  _236
REMARK   83  A    between atoms: _236  and  _237
REMARK   84  A    between atoms: _243  and  _245
REMARK   85  A    between atoms: _245  and  _246
REMARK   86  A    between atoms: _248  and  _250
REMARK   87  A    between atoms: _250  and  _251
REMARK   88  A    between atoms: _250  and  _253
REMARK   89  A    between atoms: _256  and  _258
REMARK   90  A    between atoms: _258  and  _259
REMARK   91  A    between atoms: _258  and  _261
REMARK   92  A    between atoms: _261  and  _262
REMARK   93  A    between atoms: _262  and  _263
REMARK   94  A    between atoms: _268  and  _270
REMARK   95  A    between atoms: _270  and  _271
REMARK   96  A    between atoms: _270  and  _273
REMARK   97  A    between atoms: _273  and  _274
REMARK   98  A    between atoms: _277  and  _279
REMARK   99  A    between atoms: _279  and  _280
REMARK  100  A    between atoms: _283  and  _285
REMARK  101  A    between atoms: _285  and  _286
REMARK  102  A    between atoms: _285  and  _288
REMARK  103  A    between atoms: _291  and  _293
REMARK  104  A    between atoms: _293  and  _294
REMARK  105  A    between atoms: _293  and  _296
REMARK  106  A    between atoms: _296  and  _297
REMARK  107  A    between atoms: _300  and  _302
REMARK  108  A    between atoms: _302  and  _303
REMARK  109  A    between atoms: _302  and  _305
REMARK  110  A    between atoms: _305  and  _306
REMARK  111  A    between atoms: _308  and  _310
REMARK  112  A    between atoms: _310  and  _311
REMARK  113  A    between atoms: _310  and  _313
REMARK  114  A    between atoms: _313  and  _314
REMARK  115  A    between atoms: _317  and  _319
REMARK  116  A    between atoms: _319  and  _320
REMARK  117  A    between atoms: _319  and  _322
REMARK  118  A    between atoms: _322  and  _323
REMARK  119  A    between atoms: _326  and  _328
REMARK  120  A    between atoms: _328  and  _329
REMARK  121  A    between atoms: _328  and  _331
REMARK  122  A    between atoms: _331  and  _332
REMARK  123  A    between atoms: _336  and  _337
REMARK  124  A    between atoms: _343  and  _344
REMARK  125  A    between atoms: _349  and  _351
REMARK  126  A    between atoms: _351  and  _352
REMARK  127  A    between atoms: _351  and  _354
REMARK  128  A    between atoms: _354  and  _355
REMARK  129  A    between atoms: _358  and  _360
REMARK  130  A    between atoms: _360  and  _361
REMARK  131  A    between atoms: _360  and  _363
REMARK  132  A    between atoms: _363  and  _364
REMARK  133  A    between atoms: _367  and  _369
REMARK  134  A    between atoms: _369  and  _370
REMARK  135  A    between atoms: _369  and  _372
REMARK  136  A    between atoms: _374  and  _376
REMARK  137  A    between atoms: _376  and  _377
REMARK  138  A    between atoms: _376  and  _379
REMARK  139  A    between atoms: _382  and  _384
REMARK  140  A    between atoms: _384  and  _385
REMARK  141  A    between atoms: _384  and  _387
REMARK  142  A    between atoms: _387  and  _388
REMARK  143  A    between atoms: _398  and  _400
REMARK  144  A    between atoms: _400  and  _401
REMARK  145  A    between atoms: _400  and  _403
REMARK  146  A    between atoms: _403  and  _404
REMARK  147  A    between atoms: _409  and  _411
REMARK  148  A    between atoms: _411  and  _412
REMARK  149  A    between atoms: _411  and  _414
REMARK  150  A    between atoms: _414  and  _415
REMARK  151  A    between atoms: _415  and  _416
REMARK  152  A    between atoms: _416  and  _417
REMARK                            x       y       z     vdW  Elec       q    Type
REMARK                         _______ _______ _______ _____ _____    ______ ____
ROOT
ATOM      1  CB  ASN A   1      -2.193  -7.126  10.550  0.00  0.00    +0.110 C 
ENDROOT
BRANCH   1   2
ATOM      2  CG  ASN A   1      -3.670  -7.368  10.337  0.00  0.00    +0.221 C 
ATOM      3  OD1 ASN A   1      -4.215  -8.377  10.784  0.00  0.00    -0.275 OA
ATOM      4  ND2 ASN A   1      -4.330  -6.443   9.652  0.00  0.00    -0.329 N 
ATOM      5 HD21 ASN A   1      -5.349  -6.555   9.474  0.00  0.00    +0.145 HD
ATOM      6 HD22 ASN A   1      -3.829  -5.606   9.293  0.00  0.00    +0.145 HD
ENDBRANCH   1   2
BRANCH   1   7
ATOM      7  CA  ASN A   1      -1.606  -7.998  11.663  0.00  0.00    +0.142 C 
BRANCH   7   8
ATOM      8  N   ASN A   1      -1.978  -9.379  11.458  0.00  0.00    -0.239 NA
ATOM      9  H   ASN A   1      -2.917  -9.611  11.076  0.00  0.00    +0.142 HD
ENDBRANCH   7   8
BRANCH   7  10
ATOM     10  C   ASN A   1      -2.108  -7.589  13.056  0.00  0.00    +0.225 C 
ATOM     11  O   ASN A   1      -2.734  -6.546  13.234  0.00  0.00    -0.287 OA
ENDBRANCH   7  10
ENDBRANCH   1   7
TORSDOF 4
REMARK  Name = ../refined-set-2016/1bnv/1bnv_pocket.pdb
REMARK  152 active torsions:
REMARK  status: ('A' for Active; 'I' for Inactive)
REMARK    1  A    between atoms: _1  and  _3
REMARK    2  A    between atoms: _3  and  _4
REMARK    3  A    between atoms: _3  and  _6
REMARK    4  A    between atoms: _6  and  _7
REMARK    5  A    between atoms: _17  and  _19
REMARK    6  A    between atoms: _19  and  _20
REMARK    7  A    between atoms: _19  and  _22
REMARK    8  A    between atoms: _22  and  _23
REMARK    9  A    between atoms: _28  and  _29
REMARK   10  A    between atoms: _31  and  _33
REMARK   11  A    between atoms: _33  and  _34
REMARK   12  A    between atoms: _33  and  _36
REMARK   13  A    between atoms: _36  and  _37
REMARK   14  A    between atoms: _40  and  _41
REMARK   15  A    between atoms: _46  and  _48
REMARK   16  A    between atoms: _48  and  _49
REMARK   17  A    between atoms: _48  and  _51
REMARK   18  A    between atoms: _51  and  _52
REMARK   19  A    between atoms: _57  and  _59
REMARK   20  A    between atoms: _59  and  _60
REMARK   21  A    between atoms: _59  and  _62
REMARK   22  A    between atoms: _62  and  _63
REMARK   23  A    between atoms: _68  and  _70
REMARK   24  A    between atoms: _70  and  _71
REMARK   25  A    between atoms: _74  and  _76
REMARK   26  A    between atoms: _76  and  _77
REMARK   27  A    between atoms: _76  and  _79
REMARK   28  A    between atoms: _79  and  _80
REMARK   29  A    between atoms: _85  and  _87
REMARK   30  A    between atoms: _87  and  _88
REMARK   31  A    between atoms: _87  and  _90
REMARK   32  A    between atoms: _90  and  _91
REMARK   33  A    between atoms: _94  and  _96
REMARK   34  A    between atoms: _96  and  _97
REMARK   35  A    between atoms: _96  and  _99
REMARK   36  A    between atoms: _99  and  _100
REMARK   37  A    between atoms: _100  and  _101
REMARK   38  A    between atoms: _106  and  _108
REMARK   39  A    between atoms: _108  and  _109
REMARK   40  A    between atoms: _108  and  _111
REMARK   41  A    between atoms: _111  and  _112
REMARK   42  A    between atoms: _118  and  _120
REMARK   43  A    between atoms: _131  and  _134
REMARK   44  A    between atoms: _134  and  _135
REMARK   45  A    between atoms: _143  and  _144
REMARK   46  A    between atoms: _152  and  _154
REMARK   47  A    between atoms: _154  and  _155
REMARK   48  A    between atoms: _154  and  _157
REMARK   49  A    between atoms: _157  and  _158
REMARK   50  A    between atoms: _158  and  _159
REMARK   51  A    between atoms: _162  and  _164
REMARK   52  A    between atoms: _164  and  _165
REMARK   53  A    between atoms: _164  and  _167
REMARK   54  A    between atoms: _167  and  _168
REMARK   55  A    between atoms: _173  and  _175
REMARK   56  A    between atoms: _175  and  _176
REMARK   57  A    between atoms: _175  and  _178
REMARK   58  A    between atoms: _178  and  _179
REMARK   59  A    between atoms: _179  and  _180
REMARK   60  A    between atoms: _183  and  _185
REMARK   61  A    between atoms: _185  and  _186
REMARK   62  A    between atoms: _185  and  _188
REMARK   63  A    between atoms: _188  and  _189
REMARK   64  A    between atoms: _192  and  _194
REMARK   65  A    between atoms: _194  and  _195
REMARK   66  A    between atoms: _194  and  _197
REMARK   67  A    between atoms: _197  and  _198
REMARK   68  A    between atoms: _199  and  ZN_426
REMARK   69  A    between atoms: _203  and  _205
REMARK   70  A    between atoms: _205  and  _206
REMARK   71  A    between atoms: _205  and  _208
REMARK   72  A    between atoms: _208  and  _209
REMARK   73  A    between atoms: _212  and  _214
REMARK   74  A    between atoms: _214  and  _215
REMARK   75  A    between atoms: _214  and  _217
REMARK   76  A    between atoms: _220  and  _222
REMARK   77  A    between atoms: _222  and  _223
REMARK   78  A    between atoms: _222  and  _225
REMARK   79  A    between atoms: _225  and  _226
REMARK   80  A    between atoms: _231  and  _233
REMARK   81  A    between atoms: _233  and  _234
REMARK   82  A    between atoms: _233  and  _236
REMARK   83  A    between atoms: _236  and  _237
REMARK   84  A    between atoms: _243  and  _245
REMARK   85  A    between atoms: _245  and  _246
REMARK   86  A    between atoms: _248  and  _250
REMARK   87  A    between atoms: _250  and  _251
REMARK   88  A    between atoms: _250  and  _253
REMARK   89  A    between atoms: _256  and  _258
REMARK   90  A    between atoms: _258  and  _259
REMARK   91  A    between atoms: _258  and  _261
REMARK   92  A    between atoms: _261  and  _262
REMARK   93  A    between atoms: _262  and  _263
REMARK   94  A    between atoms: _268  and  _270
REMARK   95  A    between atoms: _270  and  _271
REMARK   96  A    between atoms: _270  and  _273
REMARK   97  A    between atoms: _273  and  _274
REMARK   98  A    between atoms: _277  and  _279
REMARK   99  A    between atoms: _279  and  _280
REMARK  100  A    between atoms: _283  and  _285
REMARK  101  A    between atoms: _285  and  _286
REMARK  102  A    between atoms: _285  and  _288
REMARK  103  A    between atoms: _291  and  _293
REMARK  104  A    between atoms: _293  and  _294
REMARK  105  A    between atoms: _293  and  _296
REMARK  106  A    between atoms: _296  and  _297
REMARK  107  A    between atoms: _300  and  _302
REMARK  108  A    between atoms: _302  and  _303
REMARK  109  A    between atoms: _302  and  _305
REMARK  110  A    between atoms: _305  and  _306
REMARK  111  A    between atoms: _308  and  _310
REMARK  112  A    between atoms: _310  and  _311
REMARK  113  A    between atoms: _310  and  _313
REMARK  114  A    between atoms: _313  and  _314
REMARK  115  A    between atoms: _317  and  _319
REMARK  116  A    between atoms: _319  and  _320
REMARK  117  A    between atoms: _319  and  _322
REMARK  118  A    between atoms: _322  and  _323
REMARK  119  A    between atoms: _326  and  _328
REMARK  120  A    between atoms: _328  and  _329
REMARK  121  A    between atoms: _328  and  _331
REMARK  122  A    between atoms: _331  and  _332
REMARK  123  A    between atoms: _336  and  _337
REMARK  124  A    between atoms: _343  and  _344
REMARK  125  A    between atoms: _349  and  _351
REMARK  126  A    between atoms: _351  and  _352
REMARK  127  A    between atoms: _351  and  _354
REMARK  128  A    between atoms: _354  and  _355
REMARK  129  A    between atoms: _358  and  _360
REMARK  130  A    between atoms: _360  and  _361
REMARK  131  A    between atoms: _360  and  _363
REMARK  132  A    between atoms: _363  and  _364
REMARK  133  A    between atoms: _367  and  _369
REMARK  134  A    between atoms: _369  and  _370
REMARK  135  A    between atoms: _369  and  _372
REMARK  136  A    between atoms: _374  and  _376
REMARK  137  A    between atoms: _376  and  _377
REMARK  138  A    between atoms: _376  and  _379
REMARK  139  A    between atoms: _382  and  _384
REMARK  140  A    between atoms: _384  and  _385
REMARK  141  A    between atoms: _384  and  _387
REMARK  142  A    between atoms: _387  and  _388
REMARK  143  A    between atoms: _398  and  _400
REMARK  144  A    between atoms: _400  and  _401
REMARK  145  A    between atoms: _400  and  _403
REMARK  146  A    between atoms: _403  and  _404
REMARK  147  A    between atoms: _409  and  _411
REMARK  148  A    between atoms: _411  and  _412
REMARK  149  A    between atoms: _411  and  _414
REMARK  150  A    between atoms: _414  and  _415
REMARK  151  A    between atoms: _415  and  _416
REMARK  152  A    between atoms: _416  and  _417
REMARK                            x       y       z     vdW  Elec       q    Type
REMARK                         _______ _______ _______ _____ _____    ______ ____
ROOT
ATOM      1  NE  ARG A   1       2.064  -3.833  21.229  0.00  0.00    -0.265 N 
ATOM      2  CZ  ARG A   1       2.184  -2.808  22.064  0.00  0.00    +0.342 C 
ATOM      3  NH2 ARG A   1       3.355  -2.579  22.639  0.00  0.00    -0.292 N 
ATOM      4 HH21 ARG A   1       3.465  -1.780  23.295  0.00  0.00    +0.255 HD
ATOM      5 HH22 ARG A   1       4.165  -3.198  22.434  0.00  0.00    +0.255 HD
ATOM      6  NH1 ARG A   1       1.156  -1.992  22.294  0.00  0.00    -0.292 N 
ATOM      7 HH11 ARG A   1       1.263  -1.193  22.951  0.00  0.00    +0.255 HD
ATOM      8 HH12 ARG A   1       0.246  -2.154  21.817  0.00  0.00    +0.255 HD
ATOM      9  HE  ARG A   1       2.895  -4.444  21.093  0.00  0.00    +0.259 HD
ENDROOT
BRANCH   1  10
ATOM     10  CD  ARG A   1       0.859  -4.163  20.492  0.00  0.00    +0.174 C 
BRANCH  10  11
ATOM     11  CG  ARG A   1       0.967  -5.545  19.907  0.00  0.00    +0.045 C 
BRANCH  11  12
ATOM     12  CB  ARG A   1      -0.131  -5.803  18.917  0.00  0.00    +0.029 C 
BRANCH  12  13
ATOM     13  CA  ARG A   1      -0.244  -7.264  18.491  0.00  0.00    +0.133 C 
BRANCH  13  14
ATOM     14  N   ARG A   1      -1.246  -7.379  17.449  0.00  0.00    -0.239 NA
ATOM     15  H   ARG A   1      -2.126  -6.831  17.537  0.00  0.00    +0.142 HD
ENDBRANCH  13  14
BRANCH  13  16
ATOM     16  C   ARG A   1      -0.635  -8.133  19.696  0.00  0.00    +0.224 C 
ATOM     17  O   ARG A   1      -1.815  -8.226  20.059  0.00  0.00    -0.287 OA
ENDBRANCH  13  16
ENDBRANCH  12  13
ENDBRANCH  11  12
ENDBRANCH  10  11
ENDBRANCH   1  10
TORSDOF 6
REMARK  Name = ../refined-set-2016/1bnv/1bnv_pocket.pdb
REMARK  152 active torsions:
REMARK  status: ('A' for Active; 'I' for Inactive)
REMARK    1  A    between atoms: _1  and  _3
REMARK    2  A    between atoms: _3  and  _4
REMARK    3  A    between atoms: _3  and  _6
REMARK    4  A    between atoms: _6  and  _7
REMARK    5  A    between atoms: _17  and  _19
REMARK    6  A    between atoms: _19  and  _20
REMARK    7  A    between atoms: _19  and  _22
REMARK    8  A    between atoms: _22  and  _23
REMARK    9  A    between atoms: _28  and  _29
REMARK   10  A    between atoms: _31  and  _33
REMARK   11  A    between atoms: _33  and  _34
REMARK   12  A    between atoms: _33  and  _36
REMARK   13  A    between atoms: _36  and  _37
REMARK   14  A    between atoms: _40  and  _41
REMARK   15  A    between atoms: _46  and  _48
REMARK   16  A    between atoms: _48  and  _49
REMARK   17  A    between atoms: _48  and  _51
REMARK   18  A    between atoms: _51  and  _52
REMARK   19  A    between atoms: _57  and  _59
REMARK   20  A    between atoms: _59  and  _60
REMARK   21  A    between atoms: _59  and  _62
REMARK   22  A    between atoms: _62  and  _63
REMARK   23  A    between atoms: _68  and  _70
REMARK   24  A    between atoms: _70  and  _71
REMARK   25  A    between atoms: _74  and  _76
REMARK   26  A    between atoms: _76  and  _77
REMARK   27  A    between atoms: _76  and  _79
REMARK   28  A    between atoms: _79  and  _80
REMARK   29  A    between atoms: _85  and  _87
REMARK   30  A    between atoms: _87  and  _88
REMARK   31  A    between atoms: _87  and  _90
REMARK   32  A    between atoms: _90  and  _91
REMARK   33  A    between atoms: _94  and  _96
REMARK   34  A    between atoms: _96  and  _97
REMARK   35  A    between atoms: _96  and  _99
REMARK   36  A    between atoms: _99  and  _100
REMARK   37  A    between atoms: _100  and  _101
REMARK   38  A    between atoms: _106  and  _108
REMARK   39  A    between atoms: _108  and  _109
REMARK   40  A    between atoms: _108  and  _111
REMARK   41  A    between atoms: _111  and  _112
REMARK   42  A    between atoms: _118  and  _120
REMARK   43  A    between atoms: _131  and  _134
REMARK   44  A    between atoms: _134  and  _135
REMARK   45  A    between atoms: _143  and  _144
REMARK   46  A    between atoms: _152  and  _154
REMARK   47  A    between atoms: _154  and  _155
REMARK   48  A    between atoms: _154  and  _157
REMARK   49  A    between atoms: _157  and  _158
REMARK   50  A    between atoms: _158  and  _159
REMARK   51  A    between atoms: _162  and  _164
REMARK   52  A    between atoms: _164  and  _165
REMARK   53  A    between atoms: _164  and  _167
REMARK   54  A    between atoms: _167  and  _168
REMARK   55  A    between atoms: _173  and  _175
REMARK   56  A    between atoms: _175  and  _176
REMARK   57  A    between atoms: _175  and  _178
REMARK   58  A    between atoms: _178  and  _179
REMARK   59  A    between atoms: _179  and  _180
REMARK   60  A    between atoms: _183  and  _185
REMARK   61  A    between atoms: _185  and  _186
REMARK   62  A    between atoms: _185  and  _188
REMARK   63  A    between atoms: _188  and  _189
REMARK   64  A    between atoms: _192  and  _194
REMARK   65  A    between atoms: _194  and  _195
REMARK   66  A    between atoms: _194  and  _197
REMARK   67  A    between atoms: _197  and  _198
REMARK   68  A    between atoms: _199  and  ZN_426
REMARK   69  A    between atoms: _203  and  _205
REMARK   70  A    between atoms: _205  and  _206
REMARK   71  A    between atoms: _205  and  _208
REMARK   72  A    between atoms: _208  and  _209
REMARK   73  A    between atoms: _212  and  _214
REMARK   74  A    between atoms: _214  and  _215
REMARK   75  A    between atoms: _214  and  _217
REMARK   76  A    between atoms: _220  and  _222
REMARK   77  A    between atoms: _222  and  _223
REMARK   78  A    between atoms: _222  and  _225
REMARK   79  A    between atoms: _225  and  _226
REMARK   80  A    between atoms: _231  and  _233
REMARK   81  A    between atoms: _233  and  _234
REMARK   82  A    between atoms: _233  and  _236
REMARK   83  A    between atoms: _236  and  _237
REMARK   84  A    between atoms: _243  and  _245
REMARK   85  A    between atoms: _245  and  _246
REMARK   86  A    between atoms: _248  and  _250
REMARK   87  A    between atoms: _250  and  _251
REMARK   88  A    between atoms: _250  and  _253
REMARK   89  A    between atoms: _256  and  _258
REMARK   90  A    between atoms: _258  and  _259
REMARK   91  A    between atoms: _258  and  _261
REMARK   92  A    between atoms: _261  and  _262
REMARK   93  A    between atoms: _262  and  _263
REMARK   94  A    between atoms: _268  and  _270
REMARK   95  A    between atoms: _270  and  _271
REMARK   96  A    between atoms: _270  and  _273
REMARK   97  A    between atoms: _273  and  _274
REMARK   98  A    between atoms: _277  and  _279
REMARK   99  A    between atoms: _279  and  _280
REMARK  100  A    between atoms: _283  and  _285
REMARK  101  A    between atoms: _285  and  _286
REMARK  102  A    between atoms: _285  and  _288
REMARK  103  A    between atoms: _291  and  _293
REMARK  104  A    between atoms: _293  and  _294
REMARK  105  A    between atoms: _293  and  _296
REMARK  106  A    between atoms: _296  and  _297
REMARK  107  A    between atoms: _300  and  _302
REMARK  108  A    between atoms: _302  and  _303
REMARK  109  A    between atoms: _302  and  _305
REMARK  110  A    between atoms: _305  and  _306
REMARK  111  A    between atoms: _308  and  _310
REMARK  112  A    between atoms: _310  and  _311
REMARK  113  A    between atoms: _310  and  _313
REMARK  114  A    between atoms: _313  and  _314
REMARK  115  A    between atoms: _317  and  _319
REMARK  116  A    between atoms: _319  and  _320
REMARK  117  A    between atoms: _319  and  _322
REMARK  118  A    between atoms: _322  and  _323
REMARK  119  A    between atoms: _326  and  _328
REMARK  120  A    between atoms: _328  and  _329
REMARK  121  A    between atoms: _328  and  _331
REMARK  122  A    between atoms: _331  and  _332
REMARK  123  A    between atoms: _336  and  _337
REMARK  124  A    between atoms: _343  and  _344
REMARK  125  A    between atoms: _349  and  _351
REMARK  126  A    between atoms: _351  and  _352
REMARK  127  A    between atoms: _351  and  _354
REMARK  128  A    between atoms: _354  and  _355
REMARK  129  A    between atoms: _358  and  _360
REMARK  130  A    between atoms: _360  and  _361
REMARK  131  A    between atoms: _360  and  _363
REMARK  132  A    between atoms: _363  and  _364
REMARK  133  A    between atoms: _367  and  _369
REMARK  134  A    between atoms: _369  and  _370
REMARK  135  A    between atoms: _369  and  _372
REMARK  136  A    between atoms: _374  and  _376
REMARK  137  A    between atoms: _376  and  _377
REMARK  138  A    between atoms: _376  and  _379
REMARK  139  A    between atoms: _382  and  _384
REMARK  140  A    between atoms: _384  and  _385
REMARK  141  A    between atoms: _384  and  _387
REMARK  142  A    between atoms: _387  and  _388
REMARK  143  A    between atoms: _398  and  _400
REMARK  144  A    between atoms: _400  and  _401
REMARK  145  A    between atoms: _400  and  _403
REMARK  146  A    between atoms: _403  and  _404
REMARK  147  A    between atoms: _409  and  _411
REMARK  148  A    between atoms: _411  and  _412
REMARK  149  A    between atoms: _411  and  _414
REMARK  150  A    between atoms: _414  and  _415
REMARK  151  A    between atoms: _415  and  _416
REMARK  152  A    between atoms: _416  and  _417
REMARK                            x       y       z     vdW  Elec       q    Type
REMARK                         _______ _______ _______ _____ _____    ______ ____
ROOT
ATOM      1  O   HOH     1      -4.453   1.018  10.828  0.00  0.00    +0.000 OA
ENDROOT
TORSDOF 0
REMARK  Name = ../refined-set-2016/1bnv/1bnv_pocket.pdb
REMARK  152 active torsions:
REMARK  status: ('A' for Active; 'I' for Inactive)
REMARK    1  A    between atoms: _1  and  _3
REMARK    2  A    between atoms: _3  and  _4
REMARK    3  A    between atoms: _3  and  _6
REMARK    4  A    between atoms: _6  and  _7
REMARK    5  A    between atoms: _17  and  _19
REMARK    6  A    between atoms: _19  and  _20
REMARK    7  A    between atoms: _19  and  _22
REMARK    8  A    between atoms: _22  and  _23
REMARK    9  A    between atoms: _28  and  _29
REMARK   10  A    between atoms: _31  and  _33
REMARK   11  A    between atoms: _33  and  _34
REMARK   12  A    between atoms: _33  and  _36
REMARK   13  A    between atoms: _36  and  _37
REMARK   14  A    between atoms: _40  and  _41
REMARK   15  A    between atoms: _46  and  _48
REMARK   16  A    between atoms: _48  and  _49
REMARK   17  A    between atoms: _48  and  _51
REMARK   18  A    between atoms: _51  and  _52
REMARK   19  A    between atoms: _57  and  _59
REMARK   20  A    between atoms: _59  and  _60
REMARK   21  A    between atoms: _59  and  _62
REMARK   22  A    between atoms: _62  and  _63
REMARK   23  A    between atoms: _68  and  _70
REMARK   24  A    between atoms: _70  and  _71
REMARK   25  A    between atoms: _74  and  _76
REMARK   26  A    between atoms: _76  and  _77
REMARK   27  A    between atoms: _76  and  _79
REMARK   28  A    between atoms: _79  and  _80
REMARK   29  A    between atoms: _85  and  _87
REMARK   30  A    between atoms: _87  and  _88
REMARK   31  A    between atoms: _87  and  _90
REMARK   32  A    between atoms: _90  and  _91
REMARK   33  A    between atoms: _94  and  _96
REMARK   34  A    between atoms: _96  and  _97
REMARK   35  A    between atoms: _96  and  _99
REMARK   36  A    between atoms: _99  and  _100
REMARK   37  A    between atoms: _100  and  _101
REMARK   38  A    between atoms: _106  and  _108
REMARK   39  A    between atoms: _108  and  _109
REMARK   40  A    between atoms: _108  and  _111
REMARK   41  A    between atoms: _111  and  _112
REMARK   42  A    between atoms: _118  and  _120
REMARK   43  A    between atoms: _131  and  _134
REMARK   44  A    between atoms: _134  and  _135
REMARK   45  A    between atoms: _143  and  _144
REMARK   46  A    between atoms: _152  and  _154
REMARK   47  A    between atoms: _154  and  _155
REMARK   48  A    between atoms: _154  and  _157
REMARK   49  A    between atoms: _157  and  _158
REMARK   50  A    between atoms: _158  and  _159
REMARK   51  A    between atoms: _162  and  _164
REMARK   52  A    between atoms: _164  and  _165
REMARK   53  A    between atoms: _164  and  _167
REMARK   54  A    between atoms: _167  and  _168
REMARK   55  A    between atoms: _173  and  _175
REMARK   56  A    between atoms: _175  and  _176
REMARK   57  A    between atoms: _175  and  _178
REMARK   58  A    between atoms: _178  and  _179
REMARK   59  A    between atoms: _179  and  _180
REMARK   60  A    between atoms: _183  and  _185
REMARK   61  A    between atoms: _185  and  _186
REMARK   62  A    between atoms: _185  and  _188
REMARK   63  A    between atoms: _188  and  _189
REMARK   64  A    between atoms: _192  and  _194
REMARK   65  A    between atoms: _194  and  _195
REMARK   66  A    between atoms: _194  and  _197
REMARK   67  A    between atoms: _197  and  _198
REMARK   68  A    between atoms: _199  and  ZN_426
REMARK   69  A    between atoms: _203  and  _205
REMARK   70  A    between atoms: _205  and  _206
REMARK   71  A    between atoms: _205  and  _208
REMARK   72  A    between atoms: _208  and  _209
REMARK   73  A    between atoms: _212  and  _214
REMARK   74  A    between atoms: _214  and  _215
REMARK   75  A    between atoms: _214  and  _217
REMARK   76  A    between atoms: _220  and  _222
REMARK   77  A    between atoms: _222  and  _223
REMARK   78  A    between atoms: _222  and  _225
REMARK   79  A    between atoms: _225  and  _226
REMARK   80  A    between atoms: _231  and  _233
REMARK   81  A    between atoms: _233  and  _234
REMARK   82  A    between atoms: _233  and  _236
REMARK   83  A    between atoms: _236  and  _237
REMARK   84  A    between atoms: _243  and  _245
REMARK   85  A    between atoms: _245  and  _246
REMARK   86  A    between atoms: _248  and  _250
REMARK   87  A    between atoms: _250  and  _251
REMARK   88  A    between atoms: _250  and  _253
REMARK   89  A    between atoms: _256  and  _258
REMARK   90  A    between atoms: _258  and  _259
REMARK   91  A    between atoms: _258  and  _261
REMARK   92  A    between atoms: _261  and  _262
REMARK   93  A    between atoms: _262  and  _263
REMARK   94  A    between atoms: _268  and  _270
REMARK   95  A    between atoms: _270  and  _271
REMARK   96  A    between atoms: _270  and  _273
REMARK   97  A    between atoms: _273  and  _274
REMARK   98  A    between atoms: _277  and  _279
REMARK   99  A    between atoms: _279  and  _280
REMARK  100  A    between atoms: _283  and  _285
REMARK  101  A    between atoms: _285  and  _286
REMARK  102  A    between atoms: _285  and  _288
REMARK  103  A    between atoms: _291  and  _293
REMARK  104  A    between atoms: _293  and  _294
REMARK  105  A    between atoms: _293  and  _296
REMARK  106  A    between atoms: _296  and  _297
REMARK  107  A    between atoms: _300  and  _302
REMARK  108  A    between atoms: _302  and  _303
REMARK  109  A    between atoms: _302  and  _305
REMARK  110  A    between atoms: _305  and  _306
REMARK  111  A    between atoms: _308  and  _310
REMARK  112  A    between atoms: _310  and  _311
REMARK  113  A    between atoms: _310  and  _313
REMARK  114  A    between atoms: _313  and  _314
REMARK  115  A    between atoms: _317  and  _319
REMARK  116  A    between atoms: _319  and  _320
REMARK  117  A    between atoms: _319  and  _322
REMARK  118  A    between atoms: _322  and  _323
REMARK  119  A    between atoms: _326  and  _328
REMARK  120  A    between atoms: _328  and  _329
REMARK  121  A    between atoms: _328  and  _331
REMARK  122  A    between atoms: _331  and  _332
REMARK  123  A    between atoms: _336  and  _337
REMARK  124  A    between atoms: _343  and  _344
REMARK  125  A    between atoms: _349  and  _351
REMARK  126  A    between atoms: _351  and  _352
REMARK  127  A    between atoms: _351  and  _354
REMARK  128  A    between atoms: _354  and  _355
REMARK  129  A    between atoms: _358  and  _360
REMARK  130  A    between atoms: _360  and  _361
REMARK  131  A    between atoms: _360  and  _363
REMARK  132  A    between atoms: _363  and  _364
REMARK  133  A    between atoms: _367  and  _369
REMARK  134  A    between atoms: _369  and  _370
REMARK  135  A    between atoms: _369  and  _372
REMARK  136  A    between atoms: _374  and  _376
REMARK  137  A    between atoms: _376  and  _377
REMARK  138  A    between atoms: _376  and  _379
REMARK  139  A    between atoms: _382  and  _384
REMARK  140  A    between atoms: _384  and  _385
REMARK  141  A    between atoms: _384  and  _387
REMARK  142  A    between atoms: _387  and  _388
REMARK  143  A    between atoms: _398  and  _400
REMARK  144  A    between atoms: _400  and  _401
REMARK  145  A    between atoms: _400  and  _403
REMARK  146  A    between atoms: _403  and  _404
REMARK  147  A    between atoms: _409  and  _411
REMARK  148  A    between atoms: _411  and  _412
REMARK  149  A    between atoms: _411  and  _414
REMARK  150  A    between atoms: _414  and  _415
REMARK  151  A    between atoms: _415  and  _416
REMARK  152  A    between atoms: _416  and  _417
REMARK                            x       y       z     vdW  Elec       q    Type
REMARK                         _______ _______ _______ _____ _____    ______ ____
ROOT
ATOM      1  O   HOH     1      -1.404  -3.944  16.097  0.00  0.00    +0.000 OA
ENDROOT
TORSDOF 0
REMARK  Name = ../refined-set-2016/1bnv/1bnv_pocket.pdb
REMARK  152 active torsions:
REMARK  status: ('A' for Active; 'I' for Inactive)
REMARK    1  A    between atoms: _1  and  _3
REMARK    2  A    between atoms: _3  and  _4
REMARK    3  A    between atoms: _3  and  _6
REMARK    4  A    between atoms: _6  and  _7
REMARK    5  A    between atoms: _17  and  _19
REMARK    6  A    between atoms: _19  and  _20
REMARK    7  A    between atoms: _19  and  _22
REMARK    8  A    between atoms: _22  and  _23
REMARK    9  A    between atoms: _28  and  _29
REMARK   10  A    between atoms: _31  and  _33
REMARK   11  A    between atoms: _33  and  _34
REMARK   12  A    between atoms: _33  and  _36
REMARK   13  A    between atoms: _36  and  _37
REMARK   14  A    between atoms: _40  and  _41
REMARK   15  A    between atoms: _46  and  _48
REMARK   16  A    between atoms: _48  and  _49
REMARK   17  A    between atoms: _48  and  _51
REMARK   18  A    between atoms: _51  and  _52
REMARK   19  A    between atoms: _57  and  _59
REMARK   20  A    between atoms: _59  and  _60
REMARK   21  A    between atoms: _59  and  _62
REMARK   22  A    between atoms: _62  and  _63
REMARK   23  A    between atoms: _68  and  _70
REMARK   24  A    between atoms: _70  and  _71
REMARK   25  A    between atoms: _74  and  _76
REMARK   26  A    between atoms: _76  and  _77
REMARK   27  A    between atoms: _76  and  _79
REMARK   28  A    between atoms: _79  and  _80
REMARK   29  A    between atoms: _85  and  _87
REMARK   30  A    between atoms: _87  and  _88
REMARK   31  A    between atoms: _87  and  _90
REMARK   32  A    between atoms: _90  and  _91
REMARK   33  A    between atoms: _94  and  _96
REMARK   34  A    between atoms: _96  and  _97
REMARK   35  A    between atoms: _96  and  _99
REMARK   36  A    between atoms: _99  and  _100
REMARK   37  A    between atoms: _100  and  _101
REMARK   38  A    between atoms: _106  and  _108
REMARK   39  A    between atoms: _108  and  _109
REMARK   40  A    between atoms: _108  and  _111
REMARK   41  A    between atoms: _111  and  _112
REMARK   42  A    between atoms: _118  and  _120
REMARK   43  A    between atoms: _131  and  _134
REMARK   44  A    between atoms: _134  and  _135
REMARK   45  A    between atoms: _143  and  _144
REMARK   46  A    between atoms: _152  and  _154
REMARK   47  A    between atoms: _154  and  _155
REMARK   48  A    between atoms: _154  and  _157
REMARK   49  A    between atoms: _157  and  _158
REMARK   50  A    between atoms: _158  and  _159
REMARK   51  A    between atoms: _162  and  _164
REMARK   52  A    between atoms: _164  and  _165
REMARK   53  A    between atoms: _164  and  _167
REMARK   54  A    between atoms: _167  and  _168
REMARK   55  A    between atoms: _173  and  _175
REMARK   56  A    between atoms: _175  and  _176
REMARK   57  A    between atoms: _175  and  _178
REMARK   58  A    between atoms: _178  and  _179
REMARK   59  A    between atoms: _179  and  _180
REMARK   60  A    between atoms: _183  and  _185
REMARK   61  A    between atoms: _185  and  _186
REMARK   62  A    between atoms: _185  and  _188
REMARK   63  A    between atoms: _188  and  _189
REMARK   64  A    between atoms: _192  and  _194
REMARK   65  A    between atoms: _194  and  _195
REMARK   66  A    between atoms: _194  and  _197
REMARK   67  A    between atoms: _197  and  _198
REMARK   68  A    between atoms: _199  and  ZN_426
REMARK   69  A    between atoms: _203  and  _205
REMARK   70  A    between atoms: _205  and  _206
REMARK   71  A    between atoms: _205  and  _208
REMARK   72  A    between atoms: _208  and  _209
REMARK   73  A    between atoms: _212  and  _214
REMARK   74  A    between atoms: _214  and  _215
REMARK   75  A    between atoms: _214  and  _217
REMARK   76  A    between atoms: _220  and  _222
REMARK   77  A    between atoms: _222  and  _223
REMARK   78  A    between atoms: _222  and  _225
REMARK   79  A    between atoms: _225  and  _226
REMARK   80  A    between atoms: _231  and  _233
REMARK   81  A    between atoms: _233  and  _234
REMARK   82  A    between atoms: _233  and  _236
REMARK   83  A    between atoms: _236  and  _237
REMARK   84  A    between atoms: _243  and  _245
REMARK   85  A    between atoms: _245  and  _246
REMARK   86  A    between atoms: _248  and  _250
REMARK   87  A    between atoms: _250  and  _251
REMARK   88  A    between atoms: _250  and  _253
REMARK   89  A    between atoms: _256  and  _258
REMARK   90  A    between atoms: _258  and  _259
REMARK   91  A    between atoms: _258  and  _261
REMARK   92  A    between atoms: _261  and  _262
REMARK   93  A    between atoms: _262  and  _263
REMARK   94  A    between atoms: _268  and  _270
REMARK   95  A    between atoms: _270  and  _271
REMARK   96  A    between atoms: _270  and  _273
REMARK   97  A    between atoms: _273  and  _274
REMARK   98  A    between atoms: _277  and  _279
REMARK   99  A    between atoms: _279  and  _280
REMARK  100  A    between atoms: _283  and  _285
REMARK  101  A    between atoms: _285  and  _286
REMARK  102  A    between atoms: _285  and  _288
REMARK  103  A    between atoms: _291  and  _293
REMARK  104  A    between atoms: _293  and  _294
REMARK  105  A    between atoms: _293  and  _296
REMARK  106  A    between atoms: _296  and  _297
REMARK  107  A    between atoms: _300  and  _302
REMARK  108  A    between atoms: _302  and  _303
REMARK  109  A    between atoms: _302  and  _305
REMARK  110  A    between atoms: _305  and  _306
REMARK  111  A    between atoms: _308  and  _310
REMARK  112  A    between atoms: _310  and  _311
REMARK  113  A    between atoms: _310  and  _313
REMARK  114  A    between atoms: _313  and  _314
REMARK  115  A    between atoms: _317  and  _319
REMARK  116  A    between atoms: _319  and  _320
REMARK  117  A    between atoms: _319  and  _322
REMARK  118  A    between atoms: _322  and  _323
REMARK  119  A    between atoms: _326  and  _328
REMARK  120  A    between atoms: _328  and  _329
REMARK  121  A    between atoms: _328  and  _331
REMARK  122  A    between atoms: _331  and  _332
REMARK  123  A    between atoms: _336  and  _337
REMARK  124  A    between atoms: _343  and  _344
REMARK  125  A    between atoms: _349  and  _351
REMARK  126  A    between atoms: _351  and  _352
REMARK  127  A    between atoms: _351  and  _354
REMARK  128  A    between atoms: _354  and  _355
REMARK  129  A    between atoms: _358  and  _360
REMARK  130  A    between atoms: _360  and  _361
REMARK  131  A    between atoms: _360  and  _363
REMARK  132  A    between atoms: _363  and  _364
REMARK  133  A    between atoms: _367  and  _369
REMARK  134  A    between atoms: _369  and  _370
REMARK  135  A    between atoms: _369  and  _372
REMARK  136  A    between atoms: _374  and  _376
REMARK  137  A    between atoms: _376  and  _377
REMARK  138  A    between atoms: _376  and  _379
REMARK  139  A    between atoms: _382  and  _384
REMARK  140  A    between atoms: _384  and  _385
REMARK  141  A    between atoms: _384  and  _387
REMARK  142  A    between atoms: _387  and  _388
REMARK  143  A    between atoms: _398  and  _400
REMARK  144  A    between atoms: _400  and  _401
REMARK  145  A    between atoms: _400  and  _403
REMARK  146  A    between atoms: _403  and  _404
REMARK  147  A    between atoms: _409  and  _411
REMARK  148  A    between atoms: _411  and  _412
REMARK  149  A    between atoms: _411  and  _414
REMARK  150  A    between atoms: _414  and  _415
REMARK  151  A    between atoms: _415  and  _416
REMARK  152  A    between atoms: _416  and  _417
REMARK                            x       y       z     vdW  Elec       q    Type
REMARK                         _______ _______ _______ _____ _____    ______ ____
ROOT
ATOM      1  O   HOH     1      -2.740  -2.950  11.774  0.00  0.00    +0.000 OA
ENDROOT
TORSDOF 0
REMARK  Name = ../refined-set-2016/1bnv/1bnv_pocket.pdb
REMARK  152 active torsions:
REMARK  status: ('A' for Active; 'I' for Inactive)
REMARK    1  A    between atoms: _1  and  _3
REMARK    2  A    between atoms: _3  and  _4
REMARK    3  A    between atoms: _3  and  _6
REMARK    4  A    between atoms: _6  and  _7
REMARK    5  A    between atoms: _17  and  _19
REMARK    6  A    between atoms: _19  and  _20
REMARK    7  A    between atoms: _19  and  _22
REMARK    8  A    between atoms: _22  and  _23
REMARK    9  A    between atoms: _28  and  _29
REMARK   10  A    between atoms: _31  and  _33
REMARK   11  A    between atoms: _33  and  _34
REMARK   12  A    between atoms: _33  and  _36
REMARK   13  A    between atoms: _36  and  _37
REMARK   14  A    between atoms: _40  and  _41
REMARK   15  A    between atoms: _46  and  _48
REMARK   16  A    between atoms: _48  and  _49
REMARK   17  A    between atoms: _48  and  _51
REMARK   18  A    between atoms: _51  and  _52
REMARK   19  A    between atoms: _57  and  _59
REMARK   20  A    between atoms: _59  and  _60
REMARK   21  A    between atoms: _59  and  _62
REMARK   22  A    between atoms: _62  and  _63
REMARK   23  A    between atoms: _68  and  _70
REMARK   24  A    between atoms: _70  and  _71
REMARK   25  A    between atoms: _74  and  _76
REMARK   26  A    between atoms: _76  and  _77
REMARK   27  A    between atoms: _76  and  _79
REMARK   28  A    between atoms: _79  and  _80
REMARK   29  A    between atoms: _85  and  _87
REMARK   30  A    between atoms: _87  and  _88
REMARK   31  A    between atoms: _87  and  _90
REMARK   32  A    between atoms: _90  and  _91
REMARK   33  A    between atoms: _94  and  _96
REMARK   34  A    between atoms: _96  and  _97
REMARK   35  A    between atoms: _96  and  _99
REMARK   36  A    between atoms: _99  and  _100
REMARK   37  A    between atoms: _100  and  _101
REMARK   38  A    between atoms: _106  and  _108
REMARK   39  A    between atoms: _108  and  _109
REMARK   40  A    between atoms: _108  and  _111
REMARK   41  A    between atoms: _111  and  _112
REMARK   42  A    between atoms: _118  and  _120
REMARK   43  A    between atoms: _131  and  _134
REMARK   44  A    between atoms: _134  and  _135
REMARK   45  A    between atoms: _143  and  _144
REMARK   46  A    between atoms: _152  and  _154
REMARK   47  A    between atoms: _154  and  _155
REMARK   48  A    between atoms: _154  and  _157
REMARK   49  A    between atoms: _157  and  _158
REMARK   50  A    between atoms: _158  and  _159
REMARK   51  A    between atoms: _162  and  _164
REMARK   52  A    between atoms: _164  and  _165
REMARK   53  A    between atoms: _164  and  _167
REMARK   54  A    between atoms: _167  and  _168
REMARK   55  A    between atoms: _173  and  _175
REMARK   56  A    between atoms: _175  and  _176
REMARK   57  A    between atoms: _175  and  _178
REMARK   58  A    between atoms: _178  and  _179
REMARK   59  A    between atoms: _179  and  _180
REMARK   60  A    between atoms: _183  and  _185
REMARK   61  A    between atoms: _185  and  _186
REMARK   62  A    between atoms: _185  and  _188
REMARK   63  A    between atoms: _188  and  _189
REMARK   64  A    between atoms: _192  and  _194
REMARK   65  A    between atoms: _194  and  _195
REMARK   66  A    between atoms: _194  and  _197
REMARK   67  A    between atoms: _197  and  _198
REMARK   68  A    between atoms: _199  and  ZN_426
REMARK   69  A    between atoms: _203  and  _205
REMARK   70  A    between atoms: _205  and  _206
REMARK   71  A    between atoms: _205  and  _208
REMARK   72  A    between atoms: _208  and  _209
REMARK   73  A    between atoms: _212  and  _214
REMARK   74  A    between atoms: _214  and  _215
REMARK   75  A    between atoms: _214  and  _217
REMARK   76  A    between atoms: _220  and  _222
REMARK   77  A    between atoms: _222  and  _223
REMARK   78  A    between atoms: _222  and  _225
REMARK   79  A    between atoms: _225  and  _226
REMARK   80  A    between atoms: _231  and  _233
REMARK   81  A    between atoms: _233  and  _234
REMARK   82  A    between atoms: _233  and  _236
REMARK   83  A    between atoms: _236  and  _237
REMARK   84  A    between atoms: _243  and  _245
REMARK   85  A    between atoms: _245  and  _246
REMARK   86  A    between atoms: _248  and  _250
REMARK   87  A    between atoms: _250  and  _251
REMARK   88  A    between atoms: _250  and  _253
REMARK   89  A    between atoms: _256  and  _258
REMARK   90  A    between atoms: _258  and  _259
REMARK   91  A    between atoms: _258  and  _261
REMARK   92  A    between atoms: _261  and  _262
REMARK   93  A    between atoms: _262  and  _263
REMARK   94  A    between atoms: _268  and  _270
REMARK   95  A    between atoms: _270  and  _271
REMARK   96  A    between atoms: _270  and  _273
REMARK   97  A    between atoms: _273  and  _274
REMARK   98  A    between atoms: _277  and  _279
REMARK   99  A    between atoms: _279  and  _280
REMARK  100  A    between atoms: _283  and  _285
REMARK  101  A    between atoms: _285  and  _286
REMARK  102  A    between atoms: _285  and  _288
REMARK  103  A    between atoms: _291  and  _293
REMARK  104  A    between atoms: _293  and  _294
REMARK  105  A    between atoms: _293  and  _296
REMARK  106  A    between atoms: _296  and  _297
REMARK  107  A    between atoms: _300  and  _302
REMARK  108  A    between atoms: _302  and  _303
REMARK  109  A    between atoms: _302  and  _305
REMARK  110  A    between atoms: _305  and  _306
REMARK  111  A    between atoms: _308  and  _310
REMARK  112  A    between atoms: _310  and  _311
REMARK  113  A    between atoms: _310  and  _313
REMARK  114  A    between atoms: _313  and  _314
REMARK  115  A    between atoms: _317  and  _319
REMARK  116  A    between atoms: _319  and  _320
REMARK  117  A    between atoms: _319  and  _322
REMARK  118  A    between atoms: _322  and  _323
REMARK  119  A    between atoms: _326  and  _328
REMARK  120  A    between atoms: _328  and  _329
REMARK  121  A    between atoms: _328  and  _331
REMARK  122  A    between atoms: _331  and  _332
REMARK  123  A    between atoms: _336  and  _337
REMARK  124  A    between atoms: _343  and  _344
REMARK  125  A    between atoms: _349  and  _351
REMARK  126  A    between atoms: _351  and  _352
REMARK  127  A    between atoms: _351  and  _354
REMARK  128  A    between atoms: _354  and  _355
REMARK  129  A    between atoms: _358  and  _360
REMARK  130  A    between atoms: _360  and  _361
REMARK  131  A    between atoms: _360  and  _363
REMARK  132  A    between atoms: _363  and  _364
REMARK  133  A    between atoms: _367  and  _369
REMARK  134  A    between atoms: _369  and  _370
REMARK  135  A    between atoms: _369  and  _372
REMARK  136  A    between atoms: _374  and  _376
REMARK  137  A    between atoms: _376  and  _377
REMARK  138  A    between atoms: _376  and  _379
REMARK  139  A    between atoms: _382  and  _384
REMARK  140  A    between atoms: _384  and  _385
REMARK  141  A    between atoms: _384  and  _387
REMARK  142  A    between atoms: _387  and  _388
REMARK  143  A    between atoms: _398  and  _400
REMARK  144  A    between atoms: _400  and  _401
REMARK  145  A    between atoms: _400  and  _403
REMARK  146  A    between atoms: _403  and  _404
REMARK  147  A    between atoms: _409  and  _411
REMARK  148  A    between atoms: _411  and  _412
REMARK  149  A    between atoms: _411  and  _414
REMARK  150  A    between atoms: _414  and  _415
REMARK  151  A    between atoms: _415  and  _416
REMARK  152  A    between atoms: _416  and  _417
REMARK                            x       y       z     vdW  Elec       q    Type
REMARK                         _______ _______ _______ _____ _____    ______ ____
ROOT
ATOM      1  O   HOH     1       0.796  11.169  22.818  0.00  0.00    +0.000 OA
ENDROOT
TORSDOF 0
