REMARK  Name = ../refined-set-2016/3c39/3c39_pocket.pdb
REMARK  114 active torsions:
REMARK  status: ('A' for Active; 'I' for Inactive)
REMARK    1  A    between atoms: _1  and  _3
REMARK    2  A    between atoms: _3  and  _4
REMARK    3  A    between atoms: _3  and  _6
REMARK    4  A    between atoms: _6  and  _7
REMARK    5  A    between atoms: _7  and  _8
REMARK    6  A    between atoms: _8  and  _9
REMARK    7  A    between atoms: _18  and  _20
REMARK    8  A    between atoms: _20  and  _21
REMARK    9  A    between atoms: _20  and  _23
REMARK   10  A    between atoms: _26  and  _28
REMARK   11  A    between atoms: _28  and  _29
REMARK   12  A    between atoms: _28  and  _31
REMARK   13  A    between atoms: _31  and  _32
REMARK   14  A    between atoms: _35  and  _37
REMARK   15  A    between atoms: _37  and  _38
REMARK   16  A    between atoms: _37  and  _40
REMARK   17  A    between atoms: _40  and  _41
REMARK   18  A    between atoms: _47  and  _49
REMARK   19  A    between atoms: _49  and  _50
REMARK   20  A    between atoms: _49  and  _52
REMARK   21  A    between atoms: _52  and  _53
REMARK   22  A    between atoms: _58  and  _60
REMARK   23  A    between atoms: _60  and  _61
REMARK   24  A    between atoms: _60  and  _63
REMARK   25  A    between atoms: _66  and  _68
REMARK   26  A    between atoms: _68  and  _69
REMARK   27  A    between atoms: _68  and  _71
REMARK   28  A    between atoms: _71  and  _72
REMARK   29  A    between atoms: _72  and  _73
REMARK   30  A    between atoms: _73  and  _74
REMARK   31  A    between atoms: _83  and  _85
REMARK   32  A    between atoms: _85  and  _86
REMARK   33  A    between atoms: _85  and  _88
REMARK   34  A    between atoms: _88  and  _89
REMARK   35  A    between atoms: _91  and  _93
REMARK   36  A    between atoms: _93  and  _94
REMARK   37  A    between atoms: _93  and  _96
REMARK   38  A    between atoms: _96  and  _97
REMARK   39  A    between atoms: _102  and  _104
REMARK   40  A    between atoms: _104  and  _105
REMARK   41  A    between atoms: _104  and  _107
REMARK   42  A    between atoms: _107  and  _108
REMARK   43  A    between atoms: _111  and  _113
REMARK   44  A    between atoms: _113  and  _114
REMARK   45  A    between atoms: _116  and  _118
REMARK   46  A    between atoms: _118  and  _119
REMARK   47  A    between atoms: _118  and  _121
REMARK   48  A    between atoms: _121  and  _122
REMARK   49  A    between atoms: _122  and  _123
REMARK   50  A    between atoms: _123  and  _124
REMARK   51  A    between atoms: _134  and  _135
REMARK   52  A    between atoms: _140  and  _142
REMARK   53  A    between atoms: _142  and  _143
REMARK   54  A    between atoms: _142  and  _145
REMARK   55  A    between atoms: _145  and  _146
REMARK   56  A    between atoms: _149  and  _151
REMARK   57  A    between atoms: _151  and  _152
REMARK   58  A    between atoms: _151  and  _154
REMARK   59  A    between atoms: _154  and  _155
REMARK   60  A    between atoms: _155  and  _156
REMARK   61  A    between atoms: _156  and  _157
REMARK   62  A    between atoms: _166  and  _168
REMARK   63  A    between atoms: _168  and  _169
REMARK   64  A    between atoms: _168  and  _171
REMARK   65  A    between atoms: _171  and  _172
REMARK   66  A    between atoms: _172  and  _173
REMARK   67  A    between atoms: _176  and  _178
REMARK   68  A    between atoms: _178  and  _179
REMARK   69  A    between atoms: _182  and  _184
REMARK   70  A    between atoms: _184  and  _185
REMARK   71  A    between atoms: _184  and  _187
REMARK   72  A    between atoms: _187  and  _188
REMARK   73  A    between atoms: _194  and  _196
REMARK   74  A    between atoms: _196  and  _197
REMARK   75  A    between atoms: _199  and  _201
REMARK   76  A    between atoms: _201  and  _202
REMARK   77  A    between atoms: _201  and  _204
REMARK   78  A    between atoms: _204  and  _205
REMARK   79  A    between atoms: _208  and  _210
REMARK   80  A    between atoms: _210  and  _211
REMARK   81  A    between atoms: _214  and  _216
REMARK   82  A    between atoms: _216  and  _217
REMARK   83  A    between atoms: _216  and  _219
REMARK   84  A    between atoms: _219  and  _220
REMARK   85  A    between atoms: _225  and  _227
REMARK   86  A    between atoms: _227  and  _228
REMARK   87  A    between atoms: _227  and  _230
REMARK   88  A    between atoms: _230  and  _231
REMARK   89  A    between atoms: _231  and  _232
REMARK   90  A    between atoms: _232  and  _233
REMARK   91  A    between atoms: _242  and  _244
REMARK   92  A    between atoms: _244  and  _245
REMARK   93  A    between atoms: _244  and  _247
REMARK   94  A    between atoms: _247  and  _248
REMARK   95  A    between atoms: _253  and  _255
REMARK   96  A    between atoms: _255  and  _256
REMARK   97  A    between atoms: _255  and  _258
REMARK   98  A    between atoms: _258  and  _259
REMARK   99  A    between atoms: _262  and  _264
REMARK  100  A    between atoms: _264  and  _265
REMARK  101  A    between atoms: _267  and  _269
REMARK  102  A    between atoms: _269  and  _270
REMARK  103  A    between atoms: _272  and  _274
REMARK  104  A    between atoms: _274  and  _275
REMARK  105  A    between atoms: _277  and  _279
REMARK  106  A    between atoms: _279  and  _280
REMARK  107  A    between atoms: _283  and  _285
REMARK  108  A    between atoms: _285  and  _286
REMARK  109  A    between atoms: _285  and  _288
REMARK  110  A    between atoms: _288  and  _289
REMARK  111  A    between atoms: _291  and  _293
REMARK  112  A    between atoms: _293  and  _294
REMARK  113  A    between atoms: _293  and  _296
REMARK  114  A    between atoms: _296  and  _297
REMARK                            x       y       z     vdW  Elec       q    Type
REMARK                         _______ _______ _______ _____ _____    ______ ____
ROOT
ATOM      1  C   ASP A   3      10.504  10.618  16.029  0.00  0.00    +0.241 C 
ATOM      2  N   PHE A   4      10.789  11.835  16.461  0.00  0.00    -0.297 N 
ATOM      3  H   PHE A   4      10.004  12.511  16.553  0.00  0.00    +0.150 HD
ATOM      4  O   ASP A   3      11.337   9.765  15.806  0.00  0.00    -0.273 OA
ENDROOT
BRANCH   1   5
ATOM      5  CA  ASP A   3       9.014  10.341  15.855  0.00  0.00    +0.160 C 
BRANCH   5   8
ATOM      6  C   VAL A   2       8.133  11.587  13.929  0.00  0.00    +0.241 C 
ATOM      7  O   VAL A   2       7.568  12.415  14.615  0.00  0.00    -0.273 OA
ATOM      8  N   ASP A   3       8.698  10.489  14.412  0.00  0.00    -0.297 N 
ATOM      9  H   ASP A   3       8.926   9.710  13.762  0.00  0.00    +0.150 HD
BRANCH   6  10
ATOM     10  CA  VAL A   2       8.149  11.728  12.417  0.00  0.00    +0.148 C 
BRANCH  10  12
ATOM     11  C   ARG A   1       6.251  12.507  11.113  0.00  0.00    +0.238 C 
ATOM     12  N   VAL A   2       7.166  12.716  12.053  0.00  0.00    -0.297 N 
ATOM     13  H   VAL A   2       7.173  13.631  12.547  0.00  0.00    +0.150 HD
ATOM     14  O   ARG A   1       6.226  11.487  10.403  0.00  0.00    -0.274 OA
BRANCH  11  15
ATOM     15  CA  ARG A   1       5.217  13.631  10.964  0.00  0.00    +0.145 C 
BRANCH  15  16
ATOM     16  N   ARG A   1       5.145  14.041   9.522  0.00  0.00    -0.238 NA
ATOM     17  H   ARG A   1       4.310  13.772   8.964  0.00  0.00    +0.142 HD
ENDBRANCH  15  16
BRANCH  15  18
ATOM     18  CB  ARG A   1       3.842  13.220  11.494  0.00  0.00    +0.030 C 
BRANCH  18  19
ATOM     19  CG  ARG A   1       3.451  13.904  12.830  0.00  0.00    +0.045 C 
BRANCH  19  20
ATOM     20  CD  ARG A   1       4.260  13.399  13.992  0.00  0.00    +0.174 C 
BRANCH  20  21
ATOM     21  NE  ARG A   1       3.728  13.862  15.294  0.00  0.00    -0.265 N 
ATOM     22  CZ  ARG A   1       4.272  13.579  16.475  0.00  0.00    +0.342 C 
ATOM     23  NH2 ARG A   1       3.728  14.041  17.570  0.00  0.00    -0.292 N 
ATOM     24 HH21 ARG A   1       4.152  13.821  18.494  0.00  0.00    +0.255 HD
ATOM     25 HH22 ARG A   1       2.872  14.629  17.517  0.00  0.00    +0.255 HD
ATOM     26  NH1 ARG A   1       5.378  12.884  16.576  0.00  0.00    -0.292 N 
ATOM     27 HH11 ARG A   1       5.779  12.679  17.513  0.00  0.00    +0.255 HD
ATOM     28 HH12 ARG A   1       5.855  12.538  15.719  0.00  0.00    +0.255 HD
ATOM     29  HE  ARG A   1       2.870  14.449  15.285  0.00  0.00    +0.259 HD
ENDBRANCH  20  21
ENDBRANCH  19  20
ENDBRANCH  18  19
ENDBRANCH  15  18
ENDBRANCH  11  15
ENDBRANCH  10  12
BRANCH  10  30
ATOM     30  CB  VAL A   2       9.570  12.162  11.944  0.00  0.00    +0.027 C 
ATOM     31  CG2 VAL A   2       9.929  13.574  12.413  0.00  0.00    +0.002 C 
ATOM     32  CG1 VAL A   2       9.677  12.022  10.430  0.00  0.00    +0.002 C 
ENDBRANCH  10  30
ENDBRANCH   6  10
ENDBRANCH   5   8
BRANCH   5  33
ATOM     33  CB  ASP A   3       8.532   8.987  16.418  0.00  0.00    +0.143 C 
BRANCH  33  34
ATOM     34  CG  ASP A   3       8.473   8.993  17.938  0.00  0.00    +0.367 C 
ATOM     35  OD2 ASP A   3       7.537   8.402  18.550  0.00  0.00    -0.246 OA
ATOM     36  OD1 ASP A   3       9.340   9.649  18.508  0.00  0.00    -0.246 OA
ENDBRANCH  33  34
ENDBRANCH   5  33
ENDBRANCH   1   5
BRANCH   2  37
ATOM     37  CA  PHE A   4      12.125  12.296  16.817  0.00  0.00    +0.153 C 
BRANCH  37  38
ATOM     38  C   PHE A   4      12.135  12.483  18.371  0.00  0.00    +0.241 C 
ATOM     39  N   ASN A   5      11.263  11.753  19.051  0.00  0.00    -0.297 N 
ATOM     40  H   ASN A   5      10.648  11.095  18.531  0.00  0.00    +0.150 HD
ATOM     41  O   PHE A   4      12.887  13.291  18.877  0.00  0.00    -0.273 OA
BRANCH  39  42
ATOM     42  CA  ASN A   5      11.131  11.839  20.527  0.00  0.00    +0.158 C 
BRANCH  42  43
ATOM     43  C   ASN A   5      12.230  11.008  21.201  0.00  0.00    +0.241 C 
ATOM     44  O   ASN A   5      11.991   9.868  21.666  0.00  0.00    -0.273 OA
ATOM     45  N   VAL A   6      13.446  11.565  21.183  0.00  0.00    -0.298 N 
ATOM     46  H   VAL A   6      13.533  12.584  20.993  0.00  0.00    +0.150 HD
BRANCH  45  47
ATOM     47  CA  VAL A   6      14.672  10.770  21.427  0.00  0.00    +0.137 C 
BRANCH  47  48
ATOM     48  CB  VAL A   6      15.872  11.129  20.465  0.00  0.00    +0.026 C 
ATOM     49  CG2 VAL A   6      16.255  12.639  20.490  0.00  0.00    +0.002 C 
ATOM     50  CG1 VAL A   6      15.638  10.607  19.024  0.00  0.00    +0.002 C 
ENDBRANCH  47  48
BRANCH  47  51
ATOM     51  C   VAL A   6      15.152  10.972  22.853  0.00  0.00    +0.227 C 
ATOM     52  O   VAL A   6      15.044  12.093  23.362  0.00  0.00    -0.286 OA
ENDBRANCH  47  51
ENDBRANCH  45  47
ENDBRANCH  42  43
BRANCH  42  53
ATOM     53  CB  ASN A   5       9.738  11.422  20.990  0.00  0.00    +0.114 C 
BRANCH  53  54
ATOM     54  CG  ASN A   5       9.640  11.423  22.564  0.00  0.00    +0.222 C 
ATOM     55  OD1 ASN A   5      10.329  12.201  23.176  0.00  0.00    -0.275 OA
ATOM     56  ND2 ASN A   5       8.735  10.649  23.149  0.00  0.00    -0.329 N 
ATOM     57 HD21 ASN A   5       8.596  10.698  24.179  0.00  0.00    +0.145 HD
ATOM     58 HD22 ASN A   5       8.164   9.993  22.578  0.00  0.00    +0.145 HD
ENDBRANCH  53  54
ENDBRANCH  42  53
ENDBRANCH  39  42
ENDBRANCH  37  38
BRANCH  37  59
ATOM     59  CB  PHE A   4      12.480  13.622  16.130  0.00  0.00    +0.055 C 
BRANCH  59  60
ATOM     60  CG  PHE A   4      12.857  13.494  14.649  0.00  0.00    -0.020 A 
ATOM     61  CD2 PHE A   4      12.939  12.255  14.024  0.00  0.00    -0.004 A 
ATOM     62  CE2 PHE A   4      13.264  12.174  12.636  0.00  0.00    -0.000 A 
ATOM     63  CZ  PHE A   4      13.530  13.302  11.947  0.00  0.00    -0.000 A 
ATOM     64  CE1 PHE A   4      13.481  14.519  12.552  0.00  0.00    -0.000 A 
ATOM     65  CD1 PHE A   4      13.085  14.623  13.886  0.00  0.00    -0.004 A 
ENDBRANCH  59  60
ENDBRANCH  37  59
ENDBRANCH   2  37
TORSDOF 24
REMARK  Name = ../refined-set-2016/3c39/3c39_pocket.pdb
REMARK  114 active torsions:
REMARK  status: ('A' for Active; 'I' for Inactive)
REMARK    1  A    between atoms: _1  and  _3
REMARK    2  A    between atoms: _3  and  _4
REMARK    3  A    between atoms: _3  and  _6
REMARK    4  A    between atoms: _6  and  _7
REMARK    5  A    between atoms: _7  and  _8
REMARK    6  A    between atoms: _8  and  _9
REMARK    7  A    between atoms: _18  and  _20
REMARK    8  A    between atoms: _20  and  _21
REMARK    9  A    between atoms: _20  and  _23
REMARK   10  A    between atoms: _26  and  _28
REMARK   11  A    between atoms: _28  and  _29
REMARK   12  A    between atoms: _28  and  _31
REMARK   13  A    between atoms: _31  and  _32
REMARK   14  A    between atoms: _35  and  _37
REMARK   15  A    between atoms: _37  and  _38
REMARK   16  A    between atoms: _37  and  _40
REMARK   17  A    between atoms: _40  and  _41
REMARK   18  A    between atoms: _47  and  _49
REMARK   19  A    between atoms: _49  and  _50
REMARK   20  A    between atoms: _49  and  _52
REMARK   21  A    between atoms: _52  and  _53
REMARK   22  A    between atoms: _58  and  _60
REMARK   23  A    between atoms: _60  and  _61
REMARK   24  A    between atoms: _60  and  _63
REMARK   25  A    between atoms: _66  and  _68
REMARK   26  A    between atoms: _68  and  _69
REMARK   27  A    between atoms: _68  and  _71
REMARK   28  A    between atoms: _71  and  _72
REMARK   29  A    between atoms: _72  and  _73
REMARK   30  A    between atoms: _73  and  _74
REMARK   31  A    between atoms: _83  and  _85
REMARK   32  A    between atoms: _85  and  _86
REMARK   33  A    between atoms: _85  and  _88
REMARK   34  A    between atoms: _88  and  _89
REMARK   35  A    between atoms: _91  and  _93
REMARK   36  A    between atoms: _93  and  _94
REMARK   37  A    between atoms: _93  and  _96
REMARK   38  A    between atoms: _96  and  _97
REMARK   39  A    between atoms: _102  and  _104
REMARK   40  A    between atoms: _104  and  _105
REMARK   41  A    between atoms: _104  and  _107
REMARK   42  A    between atoms: _107  and  _108
REMARK   43  A    between atoms: _111  and  _113
REMARK   44  A    between atoms: _113  and  _114
REMARK   45  A    between atoms: _116  and  _118
REMARK   46  A    between atoms: _118  and  _119
REMARK   47  A    between atoms: _118  and  _121
REMARK   48  A    between atoms: _121  and  _122
REMARK   49  A    between atoms: _122  and  _123
REMARK   50  A    between atoms: _123  and  _124
REMARK   51  A    between atoms: _134  and  _135
REMARK   52  A    between atoms: _140  and  _142
REMARK   53  A    between atoms: _142  and  _143
REMARK   54  A    between atoms: _142  and  _145
REMARK   55  A    between atoms: _145  and  _146
REMARK   56  A    between atoms: _149  and  _151
REMARK   57  A    between atoms: _151  and  _152
REMARK   58  A    between atoms: _151  and  _154
REMARK   59  A    between atoms: _154  and  _155
REMARK   60  A    between atoms: _155  and  _156
REMARK   61  A    between atoms: _156  and  _157
REMARK   62  A    between atoms: _166  and  _168
REMARK   63  A    between atoms: _168  and  _169
REMARK   64  A    between atoms: _168  and  _171
REMARK   65  A    between atoms: _171  and  _172
REMARK   66  A    between atoms: _172  and  _173
REMARK   67  A    between atoms: _176  and  _178
REMARK   68  A    between atoms: _178  and  _179
REMARK   69  A    between atoms: _182  and  _184
REMARK   70  A    between atoms: _184  and  _185
REMARK   71  A    between atoms: _184  and  _187
REMARK   72  A    between atoms: _187  and  _188
REMARK   73  A    between atoms: _194  and  _196
REMARK   74  A    between atoms: _196  and  _197
REMARK   75  A    between atoms: _199  and  _201
REMARK   76  A    between atoms: _201  and  _202
REMARK   77  A    between atoms: _201  and  _204
REMARK   78  A    between atoms: _204  and  _205
REMARK   79  A    between atoms: _208  and  _210
REMARK   80  A    between atoms: _210  and  _211
REMARK   81  A    between atoms: _214  and  _216
REMARK   82  A    between atoms: _216  and  _217
REMARK   83  A    between atoms: _216  and  _219
REMARK   84  A    between atoms: _219  and  _220
REMARK   85  A    between atoms: _225  and  _227
REMARK   86  A    between atoms: _227  and  _228
REMARK   87  A    between atoms: _227  and  _230
REMARK   88  A    between atoms: _230  and  _231
REMARK   89  A    between atoms: _231  and  _232
REMARK   90  A    between atoms: _232  and  _233
REMARK   91  A    between atoms: _242  and  _244
REMARK   92  A    between atoms: _244  and  _245
REMARK   93  A    between atoms: _244  and  _247
REMARK   94  A    between atoms: _247  and  _248
REMARK   95  A    between atoms: _253  and  _255
REMARK   96  A    between atoms: _255  and  _256
REMARK   97  A    between atoms: _255  and  _258
REMARK   98  A    between atoms: _258  and  _259
REMARK   99  A    between atoms: _262  and  _264
REMARK  100  A    between atoms: _264  and  _265
REMARK  101  A    between atoms: _267  and  _269
REMARK  102  A    between atoms: _269  and  _270
REMARK  103  A    between atoms: _272  and  _274
REMARK  104  A    between atoms: _274  and  _275
REMARK  105  A    between atoms: _277  and  _279
REMARK  106  A    between atoms: _279  and  _280
REMARK  107  A    between atoms: _283  and  _285
REMARK  108  A    between atoms: _285  and  _286
REMARK  109  A    between atoms: _285  and  _288
REMARK  110  A    between atoms: _288  and  _289
REMARK  111  A    between atoms: _291  and  _293
REMARK  112  A    between atoms: _293  and  _294
REMARK  113  A    between atoms: _293  and  _296
REMARK  114  A    between atoms: _296  and  _297
REMARK                            x       y       z     vdW  Elec       q    Type
REMARK                         _______ _______ _______ _____ _____    ______ ____
ROOT
ATOM      1  NE  ARG A   1      11.076   6.460  19.261  0.00  0.00    -0.265 N 
ATOM      2  CZ  ARG A   1      10.276   6.589  20.312  0.00  0.00    +0.342 C 
ATOM      3  NH2 ARG A   1      10.379   7.656  21.065  0.00  0.00    -0.292 N 
ATOM      4 HH21 ARG A   1       9.759   7.771  21.892  0.00  0.00    +0.255 HD
ATOM      5 HH22 ARG A   1      11.081   8.388  20.836  0.00  0.00    +0.255 HD
ATOM      6  NH1 ARG A   1       9.368   5.662  20.565  0.00  0.00    -0.292 N 
ATOM      7 HH11 ARG A   1       8.740   5.760  21.388  0.00  0.00    +0.255 HD
ATOM      8 HH12 ARG A   1       9.282   4.834  19.941  0.00  0.00    +0.255 HD
ATOM      9  HE  ARG A   1      10.959   5.618  18.662  0.00  0.00    +0.259 HD
ENDROOT
BRANCH   1  10
ATOM     10  CD  ARG A   1      12.108   7.422  18.892  0.00  0.00    +0.174 C 
BRANCH  10  11
ATOM     11  CG  ARG A   1      12.772   6.931  17.580  0.00  0.00    +0.045 C 
BRANCH  11  12
ATOM     12  CB  ARG A   1      13.766   7.930  17.027  0.00  0.00    +0.029 C 
BRANCH  12  13
ATOM     13  CA  ARG A   1      14.671   7.366  15.909  0.00  0.00    +0.133 C 
BRANCH  13  14
ATOM     14  N   ARG A   1      15.965   6.827  16.440  0.00  0.00    -0.239 NA
ATOM     15  H   ARG A   1      16.219   7.014  17.431  0.00  0.00    +0.142 HD
ENDBRANCH  13  14
BRANCH  13  16
ATOM     16  C   ARG A   1      14.853   8.401  14.791  0.00  0.00    +0.224 C 
ATOM     17  O   ARG A   1      14.005   8.473  13.892  0.00  0.00    -0.287 OA
ENDBRANCH  13  16
ENDBRANCH  12  13
ENDBRANCH  11  12
ENDBRANCH  10  11
ENDBRANCH   1  10
TORSDOF 6
REMARK  Name = ../refined-set-2016/3c39/3c39_pocket.pdb
REMARK  114 active torsions:
REMARK  status: ('A' for Active; 'I' for Inactive)
REMARK    1  A    between atoms: _1  and  _3
REMARK    2  A    between atoms: _3  and  _4
REMARK    3  A    between atoms: _3  and  _6
REMARK    4  A    between atoms: _6  and  _7
REMARK    5  A    between atoms: _7  and  _8
REMARK    6  A    between atoms: _8  and  _9
REMARK    7  A    between atoms: _18  and  _20
REMARK    8  A    between atoms: _20  and  _21
REMARK    9  A    between atoms: _20  and  _23
REMARK   10  A    between atoms: _26  and  _28
REMARK   11  A    between atoms: _28  and  _29
REMARK   12  A    between atoms: _28  and  _31
REMARK   13  A    between atoms: _31  and  _32
REMARK   14  A    between atoms: _35  and  _37
REMARK   15  A    between atoms: _37  and  _38
REMARK   16  A    between atoms: _37  and  _40
REMARK   17  A    between atoms: _40  and  _41
REMARK   18  A    between atoms: _47  and  _49
REMARK   19  A    between atoms: _49  and  _50
REMARK   20  A    between atoms: _49  and  _52
REMARK   21  A    between atoms: _52  and  _53
REMARK   22  A    between atoms: _58  and  _60
REMARK   23  A    between atoms: _60  and  _61
REMARK   24  A    between atoms: _60  and  _63
REMARK   25  A    between atoms: _66  and  _68
REMARK   26  A    between atoms: _68  and  _69
REMARK   27  A    between atoms: _68  and  _71
REMARK   28  A    between atoms: _71  and  _72
REMARK   29  A    between atoms: _72  and  _73
REMARK   30  A    between atoms: _73  and  _74
REMARK   31  A    between atoms: _83  and  _85
REMARK   32  A    between atoms: _85  and  _86
REMARK   33  A    between atoms: _85  and  _88
REMARK   34  A    between atoms: _88  and  _89
REMARK   35  A    between atoms: _91  and  _93
REMARK   36  A    between atoms: _93  and  _94
REMARK   37  A    between atoms: _93  and  _96
REMARK   38  A    between atoms: _96  and  _97
REMARK   39  A    between atoms: _102  and  _104
REMARK   40  A    between atoms: _104  and  _105
REMARK   41  A    between atoms: _104  and  _107
REMARK   42  A    between atoms: _107  and  _108
REMARK   43  A    between atoms: _111  and  _113
REMARK   44  A    between atoms: _113  and  _114
REMARK   45  A    between atoms: _116  and  _118
REMARK   46  A    between atoms: _118  and  _119
REMARK   47  A    between atoms: _118  and  _121
REMARK   48  A    between atoms: _121  and  _122
REMARK   49  A    between atoms: _122  and  _123
REMARK   50  A    between atoms: _123  and  _124
REMARK   51  A    between atoms: _134  and  _135
REMARK   52  A    between atoms: _140  and  _142
REMARK   53  A    between atoms: _142  and  _143
REMARK   54  A    between atoms: _142  and  _145
REMARK   55  A    between atoms: _145  and  _146
REMARK   56  A    between atoms: _149  and  _151
REMARK   57  A    between atoms: _151  and  _152
REMARK   58  A    between atoms: _151  and  _154
REMARK   59  A    between atoms: _154  and  _155
REMARK   60  A    between atoms: _155  and  _156
REMARK   61  A    between atoms: _156  and  _157
REMARK   62  A    between atoms: _166  and  _168
REMARK   63  A    between atoms: _168  and  _169
REMARK   64  A    between atoms: _168  and  _171
REMARK   65  A    between atoms: _171  and  _172
REMARK   66  A    between atoms: _172  and  _173
REMARK   67  A    between atoms: _176  and  _178
REMARK   68  A    between atoms: _178  and  _179
REMARK   69  A    between atoms: _182  and  _184
REMARK   70  A    between atoms: _184  and  _185
REMARK   71  A    between atoms: _184  and  _187
REMARK   72  A    between atoms: _187  and  _188
REMARK   73  A    between atoms: _194  and  _196
REMARK   74  A    between atoms: _196  and  _197
REMARK   75  A    between atoms: _199  and  _201
REMARK   76  A    between atoms: _201  and  _202
REMARK   77  A    between atoms: _201  and  _204
REMARK   78  A    between atoms: _204  and  _205
REMARK   79  A    between atoms: _208  and  _210
REMARK   80  A    between atoms: _210  and  _211
REMARK   81  A    between atoms: _214  and  _216
REMARK   82  A    between atoms: _216  and  _217
REMARK   83  A    between atoms: _216  and  _219
REMARK   84  A    between atoms: _219  and  _220
REMARK   85  A    between atoms: _225  and  _227
REMARK   86  A    between atoms: _227  and  _228
REMARK   87  A    between atoms: _227  and  _230
REMARK   88  A    between atoms: _230  and  _231
REMARK   89  A    between atoms: _231  and  _232
REMARK   90  A    between atoms: _232  and  _233
REMARK   91  A    between atoms: _242  and  _244
REMARK   92  A    between atoms: _244  and  _245
REMARK   93  A    between atoms: _244  and  _247
REMARK   94  A    between atoms: _247  and  _248
REMARK   95  A    between atoms: _253  and  _255
REMARK   96  A    between atoms: _255  and  _256
REMARK   97  A    between atoms: _255  and  _258
REMARK   98  A    between atoms: _258  and  _259
REMARK   99  A    between atoms: _262  and  _264
REMARK  100  A    between atoms: _264  and  _265
REMARK  101  A    between atoms: _267  and  _269
REMARK  102  A    between atoms: _269  and  _270
REMARK  103  A    between atoms: _272  and  _274
REMARK  104  A    between atoms: _274  and  _275
REMARK  105  A    between atoms: _277  and  _279
REMARK  106  A    between atoms: _279  and  _280
REMARK  107  A    between atoms: _283  and  _285
REMARK  108  A    between atoms: _285  and  _286
REMARK  109  A    between atoms: _285  and  _288
REMARK  110  A    between atoms: _288  and  _289
REMARK  111  A    between atoms: _291  and  _293
REMARK  112  A    between atoms: _293  and  _294
REMARK  113  A    between atoms: _293  and  _296
REMARK  114  A    between atoms: _296  and  _297
REMARK                            x       y       z     vdW  Elec       q    Type
REMARK                         _______ _______ _______ _____ _____    ______ ____
ROOT
ATOM      1  C   GLY A   4       7.506  14.829  26.218  0.00  0.00    +0.243 C 
ATOM      2  N   ARG A   5       7.131  15.292  27.428  0.00  0.00    -0.297 N 
ATOM      3  H   ARG A   5       7.835  15.377  28.189  0.00  0.00    +0.150 HD
ATOM      4  O   GLY A   4       6.729  14.722  25.257  0.00  0.00    -0.273 OA
ENDROOT
BRANCH   2   5
ATOM      5  CA  ARG A   5       5.768  15.668  27.673  0.00  0.00    +0.149 C 
BRANCH   5   6
ATOM      6  C   ARG A   5       5.675  17.053  28.287  0.00  0.00    +0.244 C 
ATOM      7  O   ARG A   5       5.513  17.203  29.519  0.00  0.00    -0.273 OA
ATOM      8  N   PRO A   6       5.884  18.073  27.472  0.00  0.00    -0.272 N 
ATOM      9  CA  PRO A   6       5.851  19.408  28.065  0.00  0.00    +0.152 C 
ATOM     10  CB  PRO A   6       6.609  20.262  27.047  0.00  0.00    +0.031 C 
ATOM     11  CG  PRO A   6       6.314  19.538  25.712  0.00  0.00    +0.024 C 
ATOM     12  CD  PRO A   6       6.368  18.096  26.076  0.00  0.00    +0.094 C 
BRANCH   9  13
ATOM     13  C   PRO A   6       4.410  19.949  28.303  0.00  0.00    +0.241 C 
ATOM     14  O   PRO A   6       4.282  21.076  28.732  0.00  0.00    -0.273 OA
ATOM     15  N   ASP A   7       3.390  19.147  28.001  0.00  0.00    -0.298 N 
ATOM     16  H   ASP A   7       3.603  18.308  27.424  0.00  0.00    +0.150 HD
BRANCH  15  17
ATOM     17  CA  ASP A   7       1.992  19.340  28.409  0.00  0.00    +0.148 C 
BRANCH  17  18
ATOM     18  C   ASP A   7       1.379  20.643  27.945  0.00  0.00    +0.227 C 
ATOM     19  O   ASP A   7       0.545  21.250  28.644  0.00  0.00    -0.286 OA
ENDBRANCH  17  18
BRANCH  17  20
ATOM     20  CB  ASP A   7       1.789  19.088  29.918  0.00  0.00    +0.142 C 
BRANCH  20  21
ATOM     21  CG  ASP A   7       2.049  17.586  30.326  0.00  0.00    +0.367 C 
ATOM     22  OD2 ASP A   7       2.496  17.355  31.492  0.00  0.00    -0.246 OA
ATOM     23  OD1 ASP A   7       1.831  16.653  29.478  0.00  0.00    -0.246 OA
ENDBRANCH  20  21
ENDBRANCH  17  20
ENDBRANCH  15  17
ENDBRANCH   9  13
ENDBRANCH   5   6
BRANCH   5  24
ATOM     24  CB  ARG A   5       5.045  14.625  28.533  0.00  0.00    +0.033 C 
BRANCH  24  25
ATOM     25  CG  ARG A   5       4.790  13.327  27.813  0.00  0.00    +0.045 C 
BRANCH  25  26
ATOM     26  CD  ARG A   5       4.718  12.203  28.788  0.00  0.00    +0.174 C 
BRANCH  26  27
ATOM     27  NE  ARG A   5       4.322  11.014  28.075  0.00  0.00    -0.265 N 
ATOM     28  CZ  ARG A   5       3.899   9.888  28.645  0.00  0.00    +0.342 C 
ATOM     29  NH2 ARG A   5       3.801   9.802  29.972  0.00  0.00    -0.292 N 
ATOM     30 HH21 ARG A   5       4.056  10.617  30.566  0.00  0.00    +0.255 HD
ATOM     31 HH22 ARG A   5       3.470   8.920  30.413  0.00  0.00    +0.255 HD
ATOM     32  NH1 ARG A   5       3.568   8.830  27.881  0.00  0.00    -0.292 N 
ATOM     33 HH11 ARG A   5       3.237   7.950  28.326  0.00  0.00    +0.255 HD
ATOM     34 HH12 ARG A   5       3.643   8.893  26.846  0.00  0.00    +0.255 HD
ATOM     35  HE  ARG A   5       4.371  11.038  27.036  0.00  0.00    +0.259 HD
ENDBRANCH  26  27
ENDBRANCH  25  26
ENDBRANCH  24  25
ENDBRANCH   5  24
ENDBRANCH   2   5
BRANCH   1  36
ATOM     36  CA  GLY A   4       8.952  14.453  26.032  0.00  0.00    +0.176 C 
BRANCH  36  38
ATOM     37  C   LEU A   3       9.302  15.721  23.882  0.00  0.00    +0.241 C 
ATOM     38  N   GLY A   4       9.398  14.600  24.610  0.00  0.00    -0.295 N 
ATOM     39  H   GLY A   4       9.816  13.766  24.151  0.00  0.00    +0.150 HD
ATOM     40  O   LEU A   3       9.037  16.833  24.343  0.00  0.00    -0.273 OA
BRANCH  37  41
ATOM     41  CA  LEU A   3       9.702  15.607  22.404  0.00  0.00    +0.149 C 
BRANCH  41  43
ATOM     42  C   HIS A   2       8.315  15.691  20.367  0.00  0.00    +0.241 C 
ATOM     43  N   LEU A   3       8.631  16.175  21.589  0.00  0.00    -0.297 N 
ATOM     44  H   LEU A   3       8.092  16.982  21.963  0.00  0.00    +0.150 HD
ATOM     45  O   HIS A   2       9.057  14.893  19.710  0.00  0.00    -0.273 OA
BRANCH  42  46
ATOM     46  CA  HIS A   2       6.979  16.196  19.770  0.00  0.00    +0.155 C 
BRANCH  46  48
ATOM     47  C   SER A   1       7.164  16.524  17.352  0.00  0.00    +0.241 C 
ATOM     48  N   HIS A   2       6.873  15.713  18.352  0.00  0.00    -0.297 N 
ATOM     49  H   HIS A   2       6.570  14.737  18.157  0.00  0.00    +0.150 HD
ATOM     50  O   SER A   1       7.345  17.716  17.497  0.00  0.00    -0.274 OA
BRANCH  47  51
ATOM     51  CA  SER A   1       7.421  15.869  15.997  0.00  0.00    +0.174 C 
BRANCH  51  52
ATOM     52  N   SER A   1       7.425  16.956  15.022  0.00  0.00    -0.236 NA
ATOM     53  H   SER A   1       7.567  17.941  15.325  0.00  0.00    +0.142 HD
ENDBRANCH  51  52
BRANCH  51  54
ATOM     54  CB  SER A   1       8.823  15.203  16.077  0.00  0.00    +0.163 C 
BRANCH  54  55
ATOM     55  OG  SER A   1       8.925  14.298  17.150  0.00  0.00    -0.380 OA
ATOM     56  H   SER A   1       8.764  14.778  18.001  0.00  0.00    +0.211 HD
ENDBRANCH  54  55
ENDBRANCH  51  54
ENDBRANCH  47  51
ENDBRANCH  46  48
BRANCH  46  57
ATOM     57  CB  HIS A   2       5.817  15.594  20.586  0.00  0.00    +0.076 C 
BRANCH  57  58
ATOM     58  CG  HIS A   2       5.964  14.130  20.844  0.00  0.00    +0.082 A 
ATOM     59  CD2 HIS A   2       6.421  13.456  21.938  0.00  0.00    +0.115 A 
ATOM     60  NE2 HIS A   2       6.419  12.120  21.618  0.00  0.00    -0.221 NA
ATOM     61  CE1 HIS A   2       6.011  11.976  20.372  0.00  0.00    +0.199 A 
ATOM     62  ND1 HIS A   2       5.756  13.175  19.877  0.00  0.00    -0.227 NA
ENDBRANCH  57  58
ENDBRANCH  46  57
ENDBRANCH  42  46
ENDBRANCH  41  43
BRANCH  41  63
ATOM     63  CB  LEU A   3      10.986  16.409  22.187  0.00  0.00    +0.029 C 
BRANCH  63  64
ATOM     64  CG  LEU A   3      12.241  16.111  23.044  0.00  0.00    +0.002 C 
ATOM     65  CD2 LEU A   3      13.190  17.236  22.893  0.00  0.00    +0.000 C 
ATOM     66  CD1 LEU A   3      12.898  14.852  22.469  0.00  0.00    +0.000 C 
ENDBRANCH  63  64
ENDBRANCH  41  63
ENDBRANCH  37  41
ENDBRANCH  36  38
ENDBRANCH   1  36
TORSDOF 25
REMARK  Name = ../refined-set-2016/3c39/3c39_pocket.pdb
REMARK  114 active torsions:
REMARK  status: ('A' for Active; 'I' for Inactive)
REMARK    1  A    between atoms: _1  and  _3
REMARK    2  A    between atoms: _3  and  _4
REMARK    3  A    between atoms: _3  and  _6
REMARK    4  A    between atoms: _6  and  _7
REMARK    5  A    between atoms: _7  and  _8
REMARK    6  A    between atoms: _8  and  _9
REMARK    7  A    between atoms: _18  and  _20
REMARK    8  A    between atoms: _20  and  _21
REMARK    9  A    between atoms: _20  and  _23
REMARK   10  A    between atoms: _26  and  _28
REMARK   11  A    between atoms: _28  and  _29
REMARK   12  A    between atoms: _28  and  _31
REMARK   13  A    between atoms: _31  and  _32
REMARK   14  A    between atoms: _35  and  _37
REMARK   15  A    between atoms: _37  and  _38
REMARK   16  A    between atoms: _37  and  _40
REMARK   17  A    between atoms: _40  and  _41
REMARK   18  A    between atoms: _47  and  _49
REMARK   19  A    between atoms: _49  and  _50
REMARK   20  A    between atoms: _49  and  _52
REMARK   21  A    between atoms: _52  and  _53
REMARK   22  A    between atoms: _58  and  _60
REMARK   23  A    between atoms: _60  and  _61
REMARK   24  A    between atoms: _60  and  _63
REMARK   25  A    between atoms: _66  and  _68
REMARK   26  A    between atoms: _68  and  _69
REMARK   27  A    between atoms: _68  and  _71
REMARK   28  A    between atoms: _71  and  _72
REMARK   29  A    between atoms: _72  and  _73
REMARK   30  A    between atoms: _73  and  _74
REMARK   31  A    between atoms: _83  and  _85
REMARK   32  A    between atoms: _85  and  _86
REMARK   33  A    between atoms: _85  and  _88
REMARK   34  A    between atoms: _88  and  _89
REMARK   35  A    between atoms: _91  and  _93
REMARK   36  A    between atoms: _93  and  _94
REMARK   37  A    between atoms: _93  and  _96
REMARK   38  A    between atoms: _96  and  _97
REMARK   39  A    between atoms: _102  and  _104
REMARK   40  A    between atoms: _104  and  _105
REMARK   41  A    between atoms: _104  and  _107
REMARK   42  A    between atoms: _107  and  _108
REMARK   43  A    between atoms: _111  and  _113
REMARK   44  A    between atoms: _113  and  _114
REMARK   45  A    between atoms: _116  and  _118
REMARK   46  A    between atoms: _118  and  _119
REMARK   47  A    between atoms: _118  and  _121
REMARK   48  A    between atoms: _121  and  _122
REMARK   49  A    between atoms: _122  and  _123
REMARK   50  A    between atoms: _123  and  _124
REMARK   51  A    between atoms: _134  and  _135
REMARK   52  A    between atoms: _140  and  _142
REMARK   53  A    between atoms: _142  and  _143
REMARK   54  A    between atoms: _142  and  _145
REMARK   55  A    between atoms: _145  and  _146
REMARK   56  A    between atoms: _149  and  _151
REMARK   57  A    between atoms: _151  and  _152
REMARK   58  A    between atoms: _151  and  _154
REMARK   59  A    between atoms: _154  and  _155
REMARK   60  A    between atoms: _155  and  _156
REMARK   61  A    between atoms: _156  and  _157
REMARK   62  A    between atoms: _166  and  _168
REMARK   63  A    between atoms: _168  and  _169
REMARK   64  A    between atoms: _168  and  _171
REMARK   65  A    between atoms: _171  and  _172
REMARK   66  A    between atoms: _172  and  _173
REMARK   67  A    between atoms: _176  and  _178
REMARK   68  A    between atoms: _178  and  _179
REMARK   69  A    between atoms: _182  and  _184
REMARK   70  A    between atoms: _184  and  _185
REMARK   71  A    between atoms: _184  and  _187
REMARK   72  A    between atoms: _187  and  _188
REMARK   73  A    between atoms: _194  and  _196
REMARK   74  A    between atoms: _196  and  _197
REMARK   75  A    between atoms: _199  and  _201
REMARK   76  A    between atoms: _201  and  _202
REMARK   77  A    between atoms: _201  and  _204
REMARK   78  A    between atoms: _204  and  _205
REMARK   79  A    between atoms: _208  and  _210
REMARK   80  A    between atoms: _210  and  _211
REMARK   81  A    between atoms: _214  and  _216
REMARK   82  A    between atoms: _216  and  _217
REMARK   83  A    between atoms: _216  and  _219
REMARK   84  A    between atoms: _219  and  _220
REMARK   85  A    between atoms: _225  and  _227
REMARK   86  A    between atoms: _227  and  _228
REMARK   87  A    between atoms: _227  and  _230
REMARK   88  A    between atoms: _230  and  _231
REMARK   89  A    between atoms: _231  and  _232
REMARK   90  A    between atoms: _232  and  _233
REMARK   91  A    between atoms: _242  and  _244
REMARK   92  A    between atoms: _244  and  _245
REMARK   93  A    between atoms: _244  and  _247
REMARK   94  A    between atoms: _247  and  _248
REMARK   95  A    between atoms: _253  and  _255
REMARK   96  A    between atoms: _255  and  _256
REMARK   97  A    between atoms: _255  and  _258
REMARK   98  A    between atoms: _258  and  _259
REMARK   99  A    between atoms: _262  and  _264
REMARK  100  A    between atoms: _264  and  _265
REMARK  101  A    between atoms: _267  and  _269
REMARK  102  A    between atoms: _269  and  _270
REMARK  103  A    between atoms: _272  and  _274
REMARK  104  A    between atoms: _274  and  _275
REMARK  105  A    between atoms: _277  and  _279
REMARK  106  A    between atoms: _279  and  _280
REMARK  107  A    between atoms: _283  and  _285
REMARK  108  A    between atoms: _285  and  _286
REMARK  109  A    between atoms: _285  and  _288
REMARK  110  A    between atoms: _288  and  _289
REMARK  111  A    between atoms: _291  and  _293
REMARK  112  A    between atoms: _293  and  _294
REMARK  113  A    between atoms: _293  and  _296
REMARK  114  A    between atoms: _296  and  _297
REMARK                            x       y       z     vdW  Elec       q    Type
REMARK                         _______ _______ _______ _____ _____    ______ ____
ROOT
ATOM      1  NE  ARG A   1       3.256  14.679  22.784  0.00  0.00    -0.265 N 
ATOM      2  CZ  ARG A   1       3.477  13.438  23.216  0.00  0.00    +0.342 C 
ATOM      3  NH2 ARG A   1       4.138  13.206  24.365  0.00  0.00    -0.292 N 
ATOM      4 HH21 ARG A   1       4.487  14.003  24.934  0.00  0.00    +0.255 HD
ATOM      5 HH22 ARG A   1       4.300  12.229  24.684  0.00  0.00    +0.255 HD
ATOM      6  NH1 ARG A   1       3.096  12.421  22.468  0.00  0.00    -0.292 N 
ATOM      7 HH11 ARG A   1       3.262  11.447  22.792  0.00  0.00    +0.255 HD
ATOM      8 HH12 ARG A   1       2.630  12.593  21.554  0.00  0.00    +0.255 HD
ATOM      9  HE  ARG A   1       2.754  14.789  21.880  0.00  0.00    +0.259 HD
ENDROOT
BRANCH   1  10
ATOM     10  CD  ARG A   1       3.660  15.892  23.476  0.00  0.00    +0.174 C 
BRANCH  10  11
ATOM     11  CG  ARG A   1       3.303  17.091  22.635  0.00  0.00    +0.045 C 
BRANCH  11  12
ATOM     12  CB  ARG A   1       4.070  18.375  23.021  0.00  0.00    +0.029 C 
BRANCH  12  13
ATOM     13  CA  ARG A   1       3.564  19.655  22.337  0.00  0.00    +0.133 C 
BRANCH  13  14
ATOM     14  N   ARG A   1       4.220  19.706  21.032  0.00  0.00    -0.239 NA
ATOM     15  H   ARG A   1       5.142  19.236  20.928  0.00  0.00    +0.142 HD
ENDBRANCH  13  14
BRANCH  13  16
ATOM     16  C   ARG A   1       3.739  20.929  23.201  0.00  0.00    +0.224 C 
ATOM     17  O   ARG A   1       3.268  21.025  24.363  0.00  0.00    -0.287 OA
ENDBRANCH  13  16
ENDBRANCH  12  13
ENDBRANCH  11  12
ENDBRANCH  10  11
ENDBRANCH   1  10
TORSDOF 6
REMARK  Name = ../refined-set-2016/3c39/3c39_pocket.pdb
REMARK  114 active torsions:
REMARK  status: ('A' for Active; 'I' for Inactive)
REMARK    1  A    between atoms: _1  and  _3
REMARK    2  A    between atoms: _3  and  _4
REMARK    3  A    between atoms: _3  and  _6
REMARK    4  A    between atoms: _6  and  _7
REMARK    5  A    between atoms: _7  and  _8
REMARK    6  A    between atoms: _8  and  _9
REMARK    7  A    between atoms: _18  and  _20
REMARK    8  A    between atoms: _20  and  _21
REMARK    9  A    between atoms: _20  and  _23
REMARK   10  A    between atoms: _26  and  _28
REMARK   11  A    between atoms: _28  and  _29
REMARK   12  A    between atoms: _28  and  _31
REMARK   13  A    between atoms: _31  and  _32
REMARK   14  A    between atoms: _35  and  _37
REMARK   15  A    between atoms: _37  and  _38
REMARK   16  A    between atoms: _37  and  _40
REMARK   17  A    between atoms: _40  and  _41
REMARK   18  A    between atoms: _47  and  _49
REMARK   19  A    between atoms: _49  and  _50
REMARK   20  A    between atoms: _49  and  _52
REMARK   21  A    between atoms: _52  and  _53
REMARK   22  A    between atoms: _58  and  _60
REMARK   23  A    between atoms: _60  and  _61
REMARK   24  A    between atoms: _60  and  _63
REMARK   25  A    between atoms: _66  and  _68
REMARK   26  A    between atoms: _68  and  _69
REMARK   27  A    between atoms: _68  and  _71
REMARK   28  A    between atoms: _71  and  _72
REMARK   29  A    between atoms: _72  and  _73
REMARK   30  A    between atoms: _73  and  _74
REMARK   31  A    between atoms: _83  and  _85
REMARK   32  A    between atoms: _85  and  _86
REMARK   33  A    between atoms: _85  and  _88
REMARK   34  A    between atoms: _88  and  _89
REMARK   35  A    between atoms: _91  and  _93
REMARK   36  A    between atoms: _93  and  _94
REMARK   37  A    between atoms: _93  and  _96
REMARK   38  A    between atoms: _96  and  _97
REMARK   39  A    between atoms: _102  and  _104
REMARK   40  A    between atoms: _104  and  _105
REMARK   41  A    between atoms: _104  and  _107
REMARK   42  A    between atoms: _107  and  _108
REMARK   43  A    between atoms: _111  and  _113
REMARK   44  A    between atoms: _113  and  _114
REMARK   45  A    between atoms: _116  and  _118
REMARK   46  A    between atoms: _118  and  _119
REMARK   47  A    between atoms: _118  and  _121
REMARK   48  A    between atoms: _121  and  _122
REMARK   49  A    between atoms: _122  and  _123
REMARK   50  A    between atoms: _123  and  _124
REMARK   51  A    between atoms: _134  and  _135
REMARK   52  A    between atoms: _140  and  _142
REMARK   53  A    between atoms: _142  and  _143
REMARK   54  A    between atoms: _142  and  _145
REMARK   55  A    between atoms: _145  and  _146
REMARK   56  A    between atoms: _149  and  _151
REMARK   57  A    between atoms: _151  and  _152
REMARK   58  A    between atoms: _151  and  _154
REMARK   59  A    between atoms: _154  and  _155
REMARK   60  A    between atoms: _155  and  _156
REMARK   61  A    between atoms: _156  and  _157
REMARK   62  A    between atoms: _166  and  _168
REMARK   63  A    between atoms: _168  and  _169
REMARK   64  A    between atoms: _168  and  _171
REMARK   65  A    between atoms: _171  and  _172
REMARK   66  A    between atoms: _172  and  _173
REMARK   67  A    between atoms: _176  and  _178
REMARK   68  A    between atoms: _178  and  _179
REMARK   69  A    between atoms: _182  and  _184
REMARK   70  A    between atoms: _184  and  _185
REMARK   71  A    between atoms: _184  and  _187
REMARK   72  A    between atoms: _187  and  _188
REMARK   73  A    between atoms: _194  and  _196
REMARK   74  A    between atoms: _196  and  _197
REMARK   75  A    between atoms: _199  and  _201
REMARK   76  A    between atoms: _201  and  _202
REMARK   77  A    between atoms: _201  and  _204
REMARK   78  A    between atoms: _204  and  _205
REMARK   79  A    between atoms: _208  and  _210
REMARK   80  A    between atoms: _210  and  _211
REMARK   81  A    between atoms: _214  and  _216
REMARK   82  A    between atoms: _216  and  _217
REMARK   83  A    between atoms: _216  and  _219
REMARK   84  A    between atoms: _219  and  _220
REMARK   85  A    between atoms: _225  and  _227
REMARK   86  A    between atoms: _227  and  _228
REMARK   87  A    between atoms: _227  and  _230
REMARK   88  A    between atoms: _230  and  _231
REMARK   89  A    between atoms: _231  and  _232
REMARK   90  A    between atoms: _232  and  _233
REMARK   91  A    between atoms: _242  and  _244
REMARK   92  A    between atoms: _244  and  _245
REMARK   93  A    between atoms: _244  and  _247
REMARK   94  A    between atoms: _247  and  _248
REMARK   95  A    between atoms: _253  and  _255
REMARK   96  A    between atoms: _255  and  _256
REMARK   97  A    between atoms: _255  and  _258
REMARK   98  A    between atoms: _258  and  _259
REMARK   99  A    between atoms: _262  and  _264
REMARK  100  A    between atoms: _264  and  _265
REMARK  101  A    between atoms: _267  and  _269
REMARK  102  A    between atoms: _269  and  _270
REMARK  103  A    between atoms: _272  and  _274
REMARK  104  A    between atoms: _274  and  _275
REMARK  105  A    between atoms: _277  and  _279
REMARK  106  A    between atoms: _279  and  _280
REMARK  107  A    between atoms: _283  and  _285
REMARK  108  A    between atoms: _285  and  _286
REMARK  109  A    between atoms: _285  and  _288
REMARK  110  A    between atoms: _288  and  _289
REMARK  111  A    between atoms: _291  and  _293
REMARK  112  A    between atoms: _293  and  _294
REMARK  113  A    between atoms: _293  and  _296
REMARK  114  A    between atoms: _296  and  _297
REMARK                            x       y       z     vdW  Elec       q    Type
REMARK                         _______ _______ _______ _____ _____    ______ ____
ROOT
ATOM      1  CA  GLU A   1      -2.667  16.423  22.399  0.00  0.00    +0.134 C 
ENDROOT
BRANCH   1   2
ATOM      2  N   GLU A   1      -2.071  17.555  21.653  0.00  0.00    -0.239 NA
ATOM      3  H   GLU A   1      -1.547  18.279  22.185  0.00  0.00    +0.142 HD
ENDBRANCH   1   2
BRANCH   1   4
ATOM      4  C   GLU A   1      -4.191  16.558  22.494  0.00  0.00    +0.224 C 
ATOM      5  O   GLU A   1      -4.915  15.555  22.620  0.00  0.00    -0.287 OA
ENDBRANCH   1   4
BRANCH   1   6
ATOM      6  CB  GLU A   1      -2.050  16.278  23.828  0.00  0.00    +0.037 C 
BRANCH   6   7
ATOM      7  CG  GLU A   1      -0.524  16.045  23.808  0.00  0.00    +0.116 C 
BRANCH   7   8
ATOM      8  CD  GLU A   1       0.128  16.099  25.204  0.00  0.00    +0.365 C 
ATOM      9  OE2 GLU A   1       0.067  15.058  25.886  0.00  0.00    -0.246 OA
ATOM     10  OE1 GLU A   1       0.697  17.156  25.613  0.00  0.00    -0.246 OA
ENDBRANCH   7   8
ENDBRANCH   6   7
ENDBRANCH   1   6
TORSDOF 5
REMARK  Name = ../refined-set-2016/3c39/3c39_pocket.pdb
REMARK  114 active torsions:
REMARK  status: ('A' for Active; 'I' for Inactive)
REMARK    1  A    between atoms: _1  and  _3
REMARK    2  A    between atoms: _3  and  _4
REMARK    3  A    between atoms: _3  and  _6
REMARK    4  A    between atoms: _6  and  _7
REMARK    5  A    between atoms: _7  and  _8
REMARK    6  A    between atoms: _8  and  _9
REMARK    7  A    between atoms: _18  and  _20
REMARK    8  A    between atoms: _20  and  _21
REMARK    9  A    between atoms: _20  and  _23
REMARK   10  A    between atoms: _26  and  _28
REMARK   11  A    between atoms: _28  and  _29
REMARK   12  A    between atoms: _28  and  _31
REMARK   13  A    between atoms: _31  and  _32
REMARK   14  A    between atoms: _35  and  _37
REMARK   15  A    between atoms: _37  and  _38
REMARK   16  A    between atoms: _37  and  _40
REMARK   17  A    between atoms: _40  and  _41
REMARK   18  A    between atoms: _47  and  _49
REMARK   19  A    between atoms: _49  and  _50
REMARK   20  A    between atoms: _49  and  _52
REMARK   21  A    between atoms: _52  and  _53
REMARK   22  A    between atoms: _58  and  _60
REMARK   23  A    between atoms: _60  and  _61
REMARK   24  A    between atoms: _60  and  _63
REMARK   25  A    between atoms: _66  and  _68
REMARK   26  A    between atoms: _68  and  _69
REMARK   27  A    between atoms: _68  and  _71
REMARK   28  A    between atoms: _71  and  _72
REMARK   29  A    between atoms: _72  and  _73
REMARK   30  A    between atoms: _73  and  _74
REMARK   31  A    between atoms: _83  and  _85
REMARK   32  A    between atoms: _85  and  _86
REMARK   33  A    between atoms: _85  and  _88
REMARK   34  A    between atoms: _88  and  _89
REMARK   35  A    between atoms: _91  and  _93
REMARK   36  A    between atoms: _93  and  _94
REMARK   37  A    between atoms: _93  and  _96
REMARK   38  A    between atoms: _96  and  _97
REMARK   39  A    between atoms: _102  and  _104
REMARK   40  A    between atoms: _104  and  _105
REMARK   41  A    between atoms: _104  and  _107
REMARK   42  A    between atoms: _107  and  _108
REMARK   43  A    between atoms: _111  and  _113
REMARK   44  A    between atoms: _113  and  _114
REMARK   45  A    between atoms: _116  and  _118
REMARK   46  A    between atoms: _118  and  _119
REMARK   47  A    between atoms: _118  and  _121
REMARK   48  A    between atoms: _121  and  _122
REMARK   49  A    between atoms: _122  and  _123
REMARK   50  A    between atoms: _123  and  _124
REMARK   51  A    between atoms: _134  and  _135
REMARK   52  A    between atoms: _140  and  _142
REMARK   53  A    between atoms: _142  and  _143
REMARK   54  A    between atoms: _142  and  _145
REMARK   55  A    between atoms: _145  and  _146
REMARK   56  A    between atoms: _149  and  _151
REMARK   57  A    between atoms: _151  and  _152
REMARK   58  A    between atoms: _151  and  _154
REMARK   59  A    between atoms: _154  and  _155
REMARK   60  A    between atoms: _155  and  _156
REMARK   61  A    between atoms: _156  and  _157
REMARK   62  A    between atoms: _166  and  _168
REMARK   63  A    between atoms: _168  and  _169
REMARK   64  A    between atoms: _168  and  _171
REMARK   65  A    between atoms: _171  and  _172
REMARK   66  A    between atoms: _172  and  _173
REMARK   67  A    between atoms: _176  and  _178
REMARK   68  A    between atoms: _178  and  _179
REMARK   69  A    between atoms: _182  and  _184
REMARK   70  A    between atoms: _184  and  _185
REMARK   71  A    between atoms: _184  and  _187
REMARK   72  A    between atoms: _187  and  _188
REMARK   73  A    between atoms: _194  and  _196
REMARK   74  A    between atoms: _196  and  _197
REMARK   75  A    between atoms: _199  and  _201
REMARK   76  A    between atoms: _201  and  _202
REMARK   77  A    between atoms: _201  and  _204
REMARK   78  A    between atoms: _204  and  _205
REMARK   79  A    between atoms: _208  and  _210
REMARK   80  A    between atoms: _210  and  _211
REMARK   81  A    between atoms: _214  and  _216
REMARK   82  A    between atoms: _216  and  _217
REMARK   83  A    between atoms: _216  and  _219
REMARK   84  A    between atoms: _219  and  _220
REMARK   85  A    between atoms: _225  and  _227
REMARK   86  A    between atoms: _227  and  _228
REMARK   87  A    between atoms: _227  and  _230
REMARK   88  A    between atoms: _230  and  _231
REMARK   89  A    between atoms: _231  and  _232
REMARK   90  A    between atoms: _232  and  _233
REMARK   91  A    between atoms: _242  and  _244
REMARK   92  A    between atoms: _244  and  _245
REMARK   93  A    between atoms: _244  and  _247
REMARK   94  A    between atoms: _247  and  _248
REMARK   95  A    between atoms: _253  and  _255
REMARK   96  A    between atoms: _255  and  _256
REMARK   97  A    between atoms: _255  and  _258
REMARK   98  A    between atoms: _258  and  _259
REMARK   99  A    between atoms: _262  and  _264
REMARK  100  A    between atoms: _264  and  _265
REMARK  101  A    between atoms: _267  and  _269
REMARK  102  A    between atoms: _269  and  _270
REMARK  103  A    between atoms: _272  and  _274
REMARK  104  A    between atoms: _274  and  _275
REMARK  105  A    between atoms: _277  and  _279
REMARK  106  A    between atoms: _279  and  _280
REMARK  107  A    between atoms: _283  and  _285
REMARK  108  A    between atoms: _285  and  _286
REMARK  109  A    between atoms: _285  and  _288
REMARK  110  A    between atoms: _288  and  _289
REMARK  111  A    between atoms: _291  and  _293
REMARK  112  A    between atoms: _293  and  _294
REMARK  113  A    between atoms: _293  and  _296
REMARK  114  A    between atoms: _296  and  _297
REMARK                            x       y       z     vdW  Elec       q    Type
REMARK                         _______ _______ _______ _____ _____    ______ ____
ROOT
ATOM      1  C   THR A   4       2.365   7.373  17.391  0.00  0.00    +0.243 C 
ATOM      2  O   THR A   4       1.360   8.036  17.612  0.00  0.00    -0.273 OA
ATOM      3  N   ALA A   5       2.374   6.297  16.601  0.00  0.00    -0.297 N 
ATOM      4  H   ALA A   5       3.256   5.752  16.520  0.00  0.00    +0.150 HD
ENDROOT
BRANCH   3   5
ATOM      5  CA  ALA A   5       1.180   5.833  15.825  0.00  0.00    +0.149 C 
ATOM      6  CB  ALA A   5       1.593   4.705  14.847  0.00  0.00    +0.031 C 
BRANCH   5   7
ATOM      7  C   ALA A   5      -0.031   5.442  16.686  0.00  0.00    +0.241 C 
ATOM      8  N   HIS A   6       0.212   5.184  17.970  0.00  0.00    -0.297 N 
ATOM      9  H   HIS A   6       1.199   5.129  18.292  0.00  0.00    +0.150 HD
ATOM     10  O   ALA A   5      -1.158   5.405  16.226  0.00  0.00    -0.273 OA
BRANCH   8  11
ATOM     11  CA  HIS A   6      -0.856   4.976  18.939  0.00  0.00    +0.155 C 
BRANCH  11  12
ATOM     12  C   HIS A   6      -1.529   6.256  19.487  0.00  0.00    +0.241 C 
ATOM     13  O   HIS A   6      -2.540   6.158  20.202  0.00  0.00    -0.273 OA
ATOM     14  N   ARG A   7      -1.018   7.443  19.144  0.00  0.00    -0.298 N 
ATOM     15  H   ARG A   7      -0.227   7.478  18.470  0.00  0.00    +0.150 HD
BRANCH  14  16
ATOM     16  CA  ARG A   7      -1.542   8.693  19.691  0.00  0.00    +0.137 C 
BRANCH  16  17
ATOM     17  C   ARG A   7      -2.411   9.373  18.649  0.00  0.00    +0.227 C 
ATOM     18  O   ARG A   7      -1.907   9.721  17.567  0.00  0.00    -0.286 OA
ENDBRANCH  16  17
BRANCH  16  19
ATOM     19  CB  ARG A   7      -0.409   9.624  20.094  0.00  0.00    +0.031 C 
BRANCH  19  20
ATOM     20  CG  ARG A   7       0.650   9.116  21.125  0.00  0.00    +0.045 C 
BRANCH  20  21
ATOM     21  CD  ARG A   7      -0.075   8.497  22.375  0.00  0.00    +0.174 C 
BRANCH  21  22
ATOM     22  NE  ARG A   7       0.838   8.268  23.473  0.00  0.00    -0.265 N 
ATOM     23  CZ  ARG A   7       0.513   7.677  24.621  0.00  0.00    +0.342 C 
ATOM     24  NH2 ARG A   7       1.448   7.500  25.533  0.00  0.00    -0.292 N 
ATOM     25 HH21 ARG A   7       1.213   7.040  26.436  0.00  0.00    +0.255 HD
ATOM     26 HH22 ARG A   7       2.420   7.820  25.350  0.00  0.00    +0.255 HD
ATOM     27  NH1 ARG A   7      -0.736   7.244  24.843  0.00  0.00    -0.292 N 
ATOM     28 HH11 ARG A   7      -0.974   6.784  25.745  0.00  0.00    +0.255 HD
ATOM     29 HH12 ARG A   7      -1.467   7.368  24.113  0.00  0.00    +0.255 HD
ATOM     30  HE  ARG A   7       1.821   8.589  23.357  0.00  0.00    +0.259 HD
ENDBRANCH  21  22
ENDBRANCH  20  21
ENDBRANCH  19  20
ENDBRANCH  16  19
ENDBRANCH  14  16
ENDBRANCH  11  12
BRANCH  11  31
ATOM     31  CB  HIS A   6      -0.334   4.057  20.098  0.00  0.00    +0.076 C 
BRANCH  31  32
ATOM     32  CG  HIS A   6       0.800   4.645  20.867  0.00  0.00    +0.082 A 
ATOM     33  CD2 HIS A   6       0.945   4.881  22.200  0.00  0.00    +0.115 A 
ATOM     34  NE2 HIS A   6       2.174   5.465  22.374  0.00  0.00    -0.221 NA
ATOM     35  CE1 HIS A   6       2.763   5.587  21.204  0.00  0.00    +0.199 A 
ATOM     36  ND1 HIS A   6       1.938   5.134  20.270  0.00  0.00    -0.227 NA
ENDBRANCH  31  32
ENDBRANCH  11  31
ENDBRANCH   8  11
ENDBRANCH   5   7
ENDBRANCH   3   5
BRANCH   1  37
ATOM     37  CA  THR A   4       3.702   7.806  17.957  0.00  0.00    +0.176 C 
BRANCH  37  40
ATOM     38  C   GLY A   3       5.548   6.157  18.189  0.00  0.00    +0.243 C 
ATOM     39  O   GLY A   3       5.363   6.031  19.416  0.00  0.00    -0.273 OA
ATOM     40  N   THR A   4       4.830   6.988  17.411  0.00  0.00    -0.295 N 
ATOM     41  H   THR A   4       5.066   7.064  16.401  0.00  0.00    +0.150 HD
BRANCH  38  42
ATOM     42  CA  GLY A   3       6.675   5.426  17.516  0.00  0.00    +0.176 C 
BRANCH  42  44
ATOM     43  C   PHE A   2       5.593   4.836  15.437  0.00  0.00    +0.241 C 
ATOM     44  N   GLY A   3       6.599   5.441  16.046  0.00  0.00    -0.295 N 
ATOM     45  H   GLY A   3       7.332   5.925  15.489  0.00  0.00    +0.150 HD
ATOM     46  O   PHE A   2       4.631   4.393  16.034  0.00  0.00    -0.273 OA
BRANCH  43  47
ATOM     47  CA  PHE A   2       5.633   4.761  13.867  0.00  0.00    +0.153 C 
BRANCH  47  50
ATOM     48  C   ALA A   1       5.366   7.149  13.624  0.00  0.00    +0.238 C 
ATOM     49  O   ALA A   1       4.378   7.154  14.366  0.00  0.00    -0.274 OA
ATOM     50  N   PHE A   2       6.033   6.031  13.328  0.00  0.00    -0.297 N 
ATOM     51  H   PHE A   2       6.857   6.080  12.696  0.00  0.00    +0.150 HD
BRANCH  48  52
ATOM     52  CA  ALA A   1       5.888   8.439  12.961  0.00  0.00    +0.145 C 
ATOM     53  CB  ALA A   1       5.309   9.716  13.539  0.00  0.00    +0.028 C 
BRANCH  52  54
ATOM     54  N   ALA A   1       5.696   8.386  11.524  0.00  0.00    -0.238 NA
ATOM     55  H   ALA A   1       4.787   8.682  11.116  0.00  0.00    +0.142 HD
ENDBRANCH  52  54
ENDBRANCH  48  52
ENDBRANCH  47  50
BRANCH  47  56
ATOM     56  CB  PHE A   2       6.495   3.561  13.424  0.00  0.00    +0.055 C 
BRANCH  56  57
ATOM     57  CG  PHE A   2       6.024   2.271  14.041  0.00  0.00    -0.020 A 
ATOM     58  CD2 PHE A   2       6.734   1.701  15.114  0.00  0.00    -0.004 A 
ATOM     59  CE2 PHE A   2       6.247   0.552  15.753  0.00  0.00    -0.000 A 
ATOM     60  CZ  PHE A   2       5.047  -0.026  15.325  0.00  0.00    -0.000 A 
ATOM     61  CE1 PHE A   2       4.314   0.548  14.301  0.00  0.00    -0.000 A 
ATOM     62  CD1 PHE A   2       4.797   1.699  13.670  0.00  0.00    -0.004 A 
ENDBRANCH  56  57
ENDBRANCH  47  56
ENDBRANCH  43  47
ENDBRANCH  42  44
ENDBRANCH  38  42
ENDBRANCH  37  40
BRANCH  37  63
ATOM     63  CB  THR A   4       3.949   9.305  17.629  0.00  0.00    +0.137 C 
ATOM     64  CG2 THR A   4       2.993  10.241  18.403  0.00  0.00    +0.034 C 
BRANCH  63  65
ATOM     65  OG1 THR A   4       5.276   9.618  18.018  0.00  0.00    -0.382 OA
ATOM     66  HG1 THR A   4       5.909   9.046  17.516  0.00  0.00    +0.210 HD
ENDBRANCH  63  65
ENDBRANCH  37  63
ENDBRANCH   1  37
TORSDOF 24
REMARK  Name = ../refined-set-2016/3c39/3c39_pocket.pdb
REMARK  114 active torsions:
REMARK  status: ('A' for Active; 'I' for Inactive)
REMARK    1  A    between atoms: _1  and  _3
REMARK    2  A    between atoms: _3  and  _4
REMARK    3  A    between atoms: _3  and  _6
REMARK    4  A    between atoms: _6  and  _7
REMARK    5  A    between atoms: _7  and  _8
REMARK    6  A    between atoms: _8  and  _9
REMARK    7  A    between atoms: _18  and  _20
REMARK    8  A    between atoms: _20  and  _21
REMARK    9  A    between atoms: _20  and  _23
REMARK   10  A    between atoms: _26  and  _28
REMARK   11  A    between atoms: _28  and  _29
REMARK   12  A    between atoms: _28  and  _31
REMARK   13  A    between atoms: _31  and  _32
REMARK   14  A    between atoms: _35  and  _37
REMARK   15  A    between atoms: _37  and  _38
REMARK   16  A    between atoms: _37  and  _40
REMARK   17  A    between atoms: _40  and  _41
REMARK   18  A    between atoms: _47  and  _49
REMARK   19  A    between atoms: _49  and  _50
REMARK   20  A    between atoms: _49  and  _52
REMARK   21  A    between atoms: _52  and  _53
REMARK   22  A    between atoms: _58  and  _60
REMARK   23  A    between atoms: _60  and  _61
REMARK   24  A    between atoms: _60  and  _63
REMARK   25  A    between atoms: _66  and  _68
REMARK   26  A    between atoms: _68  and  _69
REMARK   27  A    between atoms: _68  and  _71
REMARK   28  A    between atoms: _71  and  _72
REMARK   29  A    between atoms: _72  and  _73
REMARK   30  A    between atoms: _73  and  _74
REMARK   31  A    between atoms: _83  and  _85
REMARK   32  A    between atoms: _85  and  _86
REMARK   33  A    between atoms: _85  and  _88
REMARK   34  A    between atoms: _88  and  _89
REMARK   35  A    between atoms: _91  and  _93
REMARK   36  A    between atoms: _93  and  _94
REMARK   37  A    between atoms: _93  and  _96
REMARK   38  A    between atoms: _96  and  _97
REMARK   39  A    between atoms: _102  and  _104
REMARK   40  A    between atoms: _104  and  _105
REMARK   41  A    between atoms: _104  and  _107
REMARK   42  A    between atoms: _107  and  _108
REMARK   43  A    between atoms: _111  and  _113
REMARK   44  A    between atoms: _113  and  _114
REMARK   45  A    between atoms: _116  and  _118
REMARK   46  A    between atoms: _118  and  _119
REMARK   47  A    between atoms: _118  and  _121
REMARK   48  A    between atoms: _121  and  _122
REMARK   49  A    between atoms: _122  and  _123
REMARK   50  A    between atoms: _123  and  _124
REMARK   51  A    between atoms: _134  and  _135
REMARK   52  A    between atoms: _140  and  _142
REMARK   53  A    between atoms: _142  and  _143
REMARK   54  A    between atoms: _142  and  _145
REMARK   55  A    between atoms: _145  and  _146
REMARK   56  A    between atoms: _149  and  _151
REMARK   57  A    between atoms: _151  and  _152
REMARK   58  A    between atoms: _151  and  _154
REMARK   59  A    between atoms: _154  and  _155
REMARK   60  A    between atoms: _155  and  _156
REMARK   61  A    between atoms: _156  and  _157
REMARK   62  A    between atoms: _166  and  _168
REMARK   63  A    between atoms: _168  and  _169
REMARK   64  A    between atoms: _168  and  _171
REMARK   65  A    between atoms: _171  and  _172
REMARK   66  A    between atoms: _172  and  _173
REMARK   67  A    between atoms: _176  and  _178
REMARK   68  A    between atoms: _178  and  _179
REMARK   69  A    between atoms: _182  and  _184
REMARK   70  A    between atoms: _184  and  _185
REMARK   71  A    between atoms: _184  and  _187
REMARK   72  A    between atoms: _187  and  _188
REMARK   73  A    between atoms: _194  and  _196
REMARK   74  A    between atoms: _196  and  _197
REMARK   75  A    between atoms: _199  and  _201
REMARK   76  A    between atoms: _201  and  _202
REMARK   77  A    between atoms: _201  and  _204
REMARK   78  A    between atoms: _204  and  _205
REMARK   79  A    between atoms: _208  and  _210
REMARK   80  A    between atoms: _210  and  _211
REMARK   81  A    between atoms: _214  and  _216
REMARK   82  A    between atoms: _216  and  _217
REMARK   83  A    between atoms: _216  and  _219
REMARK   84  A    between atoms: _219  and  _220
REMARK   85  A    between atoms: _225  and  _227
REMARK   86  A    between atoms: _227  and  _228
REMARK   87  A    between atoms: _227  and  _230
REMARK   88  A    between atoms: _230  and  _231
REMARK   89  A    between atoms: _231  and  _232
REMARK   90  A    between atoms: _232  and  _233
REMARK   91  A    between atoms: _242  and  _244
REMARK   92  A    between atoms: _244  and  _245
REMARK   93  A    between atoms: _244  and  _247
REMARK   94  A    between atoms: _247  and  _248
REMARK   95  A    between atoms: _253  and  _255
REMARK   96  A    between atoms: _255  and  _256
REMARK   97  A    between atoms: _255  and  _258
REMARK   98  A    between atoms: _258  and  _259
REMARK   99  A    between atoms: _262  and  _264
REMARK  100  A    between atoms: _264  and  _265
REMARK  101  A    between atoms: _267  and  _269
REMARK  102  A    between atoms: _269  and  _270
REMARK  103  A    between atoms: _272  and  _274
REMARK  104  A    between atoms: _274  and  _275
REMARK  105  A    between atoms: _277  and  _279
REMARK  106  A    between atoms: _279  and  _280
REMARK  107  A    between atoms: _283  and  _285
REMARK  108  A    between atoms: _285  and  _286
REMARK  109  A    between atoms: _285  and  _288
REMARK  110  A    between atoms: _288  and  _289
REMARK  111  A    between atoms: _291  and  _293
REMARK  112  A    between atoms: _293  and  _294
REMARK  113  A    between atoms: _293  and  _296
REMARK  114  A    between atoms: _296  and  _297
REMARK                            x       y       z     vdW  Elec       q    Type
REMARK                         _______ _______ _______ _____ _____    ______ ____
ROOT
ATOM      1  CB  HIS A   1      -1.585  13.880  18.864  0.00  0.00    +0.072 C 
ENDROOT
BRANCH   1   2
ATOM      2  CG  HIS A   1      -1.498  13.305  20.248  0.00  0.00    +0.082 A 
ATOM      3  CD2 HIS A   1      -2.441  12.718  21.043  0.00  0.00    +0.115 A 
ATOM      4  NE2 HIS A   1      -1.820  12.362  22.222  0.00  0.00    -0.221 NA
ATOM      5  CE1 HIS A   1      -0.568  12.795  22.191  0.00  0.00    +0.199 A 
ATOM      6  ND1 HIS A   1      -0.350  13.364  21.007  0.00  0.00    -0.227 NA
ENDBRANCH   1   2
BRANCH   1   7
ATOM      7  CA  HIS A   1      -3.013  13.784  18.241  0.00  0.00    +0.139 C 
BRANCH   7   8
ATOM      8  N   HIS A   1      -3.320  12.359  17.991  0.00  0.00    -0.239 NA
ATOM      9  H   HIS A   1      -2.568  11.748  17.614  0.00  0.00    +0.142 HD
ENDBRANCH   7   8
BRANCH   7  10
ATOM     10  C   HIS A   1      -3.156  14.559  16.914  0.00  0.00    +0.224 C 
ATOM     11  O   HIS A   1      -3.262  13.914  15.837  0.00  0.00    -0.287 OA
ENDBRANCH   7  10
ENDBRANCH   1   7
TORSDOF 4
REMARK  Name = ../refined-set-2016/3c39/3c39_pocket.pdb
REMARK  114 active torsions:
REMARK  status: ('A' for Active; 'I' for Inactive)
REMARK    1  A    between atoms: _1  and  _3
REMARK    2  A    between atoms: _3  and  _4
REMARK    3  A    between atoms: _3  and  _6
REMARK    4  A    between atoms: _6  and  _7
REMARK    5  A    between atoms: _7  and  _8
REMARK    6  A    between atoms: _8  and  _9
REMARK    7  A    between atoms: _18  and  _20
REMARK    8  A    between atoms: _20  and  _21
REMARK    9  A    between atoms: _20  and  _23
REMARK   10  A    between atoms: _26  and  _28
REMARK   11  A    between atoms: _28  and  _29
REMARK   12  A    between atoms: _28  and  _31
REMARK   13  A    between atoms: _31  and  _32
REMARK   14  A    between atoms: _35  and  _37
REMARK   15  A    between atoms: _37  and  _38
REMARK   16  A    between atoms: _37  and  _40
REMARK   17  A    between atoms: _40  and  _41
REMARK   18  A    between atoms: _47  and  _49
REMARK   19  A    between atoms: _49  and  _50
REMARK   20  A    between atoms: _49  and  _52
REMARK   21  A    between atoms: _52  and  _53
REMARK   22  A    between atoms: _58  and  _60
REMARK   23  A    between atoms: _60  and  _61
REMARK   24  A    between atoms: _60  and  _63
REMARK   25  A    between atoms: _66  and  _68
REMARK   26  A    between atoms: _68  and  _69
REMARK   27  A    between atoms: _68  and  _71
REMARK   28  A    between atoms: _71  and  _72
REMARK   29  A    between atoms: _72  and  _73
REMARK   30  A    between atoms: _73  and  _74
REMARK   31  A    between atoms: _83  and  _85
REMARK   32  A    between atoms: _85  and  _86
REMARK   33  A    between atoms: _85  and  _88
REMARK   34  A    between atoms: _88  and  _89
REMARK   35  A    between atoms: _91  and  _93
REMARK   36  A    between atoms: _93  and  _94
REMARK   37  A    between atoms: _93  and  _96
REMARK   38  A    between atoms: _96  and  _97
REMARK   39  A    between atoms: _102  and  _104
REMARK   40  A    between atoms: _104  and  _105
REMARK   41  A    between atoms: _104  and  _107
REMARK   42  A    between atoms: _107  and  _108
REMARK   43  A    between atoms: _111  and  _113
REMARK   44  A    between atoms: _113  and  _114
REMARK   45  A    between atoms: _116  and  _118
REMARK   46  A    between atoms: _118  and  _119
REMARK   47  A    between atoms: _118  and  _121
REMARK   48  A    between atoms: _121  and  _122
REMARK   49  A    between atoms: _122  and  _123
REMARK   50  A    between atoms: _123  and  _124
REMARK   51  A    between atoms: _134  and  _135
REMARK   52  A    between atoms: _140  and  _142
REMARK   53  A    between atoms: _142  and  _143
REMARK   54  A    between atoms: _142  and  _145
REMARK   55  A    between atoms: _145  and  _146
REMARK   56  A    between atoms: _149  and  _151
REMARK   57  A    between atoms: _151  and  _152
REMARK   58  A    between atoms: _151  and  _154
REMARK   59  A    between atoms: _154  and  _155
REMARK   60  A    between atoms: _155  and  _156
REMARK   61  A    between atoms: _156  and  _157
REMARK   62  A    between atoms: _166  and  _168
REMARK   63  A    between atoms: _168  and  _169
REMARK   64  A    between atoms: _168  and  _171
REMARK   65  A    between atoms: _171  and  _172
REMARK   66  A    between atoms: _172  and  _173
REMARK   67  A    between atoms: _176  and  _178
REMARK   68  A    between atoms: _178  and  _179
REMARK   69  A    between atoms: _182  and  _184
REMARK   70  A    between atoms: _184  and  _185
REMARK   71  A    between atoms: _184  and  _187
REMARK   72  A    between atoms: _187  and  _188
REMARK   73  A    between atoms: _194  and  _196
REMARK   74  A    between atoms: _196  and  _197
REMARK   75  A    between atoms: _199  and  _201
REMARK   76  A    between atoms: _201  and  _202
REMARK   77  A    between atoms: _201  and  _204
REMARK   78  A    between atoms: _204  and  _205
REMARK   79  A    between atoms: _208  and  _210
REMARK   80  A    between atoms: _210  and  _211
REMARK   81  A    between atoms: _214  and  _216
REMARK   82  A    between atoms: _216  and  _217
REMARK   83  A    between atoms: _216  and  _219
REMARK   84  A    between atoms: _219  and  _220
REMARK   85  A    between atoms: _225  and  _227
REMARK   86  A    between atoms: _227  and  _228
REMARK   87  A    between atoms: _227  and  _230
REMARK   88  A    between atoms: _230  and  _231
REMARK   89  A    between atoms: _231  and  _232
REMARK   90  A    between atoms: _232  and  _233
REMARK   91  A    between atoms: _242  and  _244
REMARK   92  A    between atoms: _244  and  _245
REMARK   93  A    between atoms: _244  and  _247
REMARK   94  A    between atoms: _247  and  _248
REMARK   95  A    between atoms: _253  and  _255
REMARK   96  A    between atoms: _255  and  _256
REMARK   97  A    between atoms: _255  and  _258
REMARK   98  A    between atoms: _258  and  _259
REMARK   99  A    between atoms: _262  and  _264
REMARK  100  A    between atoms: _264  and  _265
REMARK  101  A    between atoms: _267  and  _269
REMARK  102  A    between atoms: _269  and  _270
REMARK  103  A    between atoms: _272  and  _274
REMARK  104  A    between atoms: _274  and  _275
REMARK  105  A    between atoms: _277  and  _279
REMARK  106  A    between atoms: _279  and  _280
REMARK  107  A    between atoms: _283  and  _285
REMARK  108  A    between atoms: _285  and  _286
REMARK  109  A    between atoms: _285  and  _288
REMARK  110  A    between atoms: _288  and  _289
REMARK  111  A    between atoms: _291  and  _293
REMARK  112  A    between atoms: _293  and  _294
REMARK  113  A    between atoms: _293  and  _296
REMARK  114  A    between atoms: _296  and  _297
REMARK                            x       y       z     vdW  Elec       q    Type
REMARK                         _______ _______ _______ _____ _____    ______ ____
ROOT
ATOM      1  C   GLY A   4       3.648   1.757  22.127  0.00  0.00    +0.243 C 
ATOM      2  O   GLY A   4       2.739   0.956  22.256  0.00  0.00    -0.273 OA
ATOM      3  N   ALA A   5       3.968   2.283  20.933  0.00  0.00    -0.297 N 
ATOM      4  H   ALA A   5       4.766   2.944  20.839  0.00  0.00    +0.150 HD
ENDROOT
BRANCH   3   5
ATOM      5  CA  ALA A   5       3.175   1.908  19.777  0.00  0.00    +0.149 C 
ATOM      6  CB  ALA A   5       3.536   2.765  18.504  0.00  0.00    +0.031 C 
BRANCH   5   7
ATOM      7  C   ALA A   5       3.352   0.413  19.494  0.00  0.00    +0.241 C 
ATOM      8  N   SER A   6       4.551  -0.115  19.735  0.00  0.00    -0.295 N 
ATOM      9  H   SER A   6       5.321   0.481  20.100  0.00  0.00    +0.150 HD
ATOM     10  O   ALA A   5       2.425  -0.244  19.061  0.00  0.00    -0.273 OA
BRANCH   8  11
ATOM     11  CA  SER A   6       4.782  -1.552  19.481  0.00  0.00    +0.178 C 
BRANCH  11  12
ATOM     12  C   SER A   6       4.121  -2.406  20.580  0.00  0.00    +0.243 C 
ATOM     13  N   LEU A   7       4.153  -1.912  21.805  0.00  0.00    -0.298 N 
ATOM     14  H   LEU A   7       4.738  -1.075  22.003  0.00  0.00    +0.150 HD
ATOM     15  O   SER A   6       3.586  -3.470  20.313  0.00  0.00    -0.273 OA
BRANCH  13  16
ATOM     16  CA  LEU A   7       3.381  -2.521  22.887  0.00  0.00    +0.137 C 
BRANCH  16  17
ATOM     17  C   LEU A   7       1.934  -2.573  22.478  0.00  0.00    +0.227 C 
ATOM     18  O   LEU A   7       1.326  -3.601  22.597  0.00  0.00    -0.286 OA
ENDBRANCH  16  17
BRANCH  16  19
ATOM     19  CB  LEU A   7       3.514  -1.696  24.155  0.00  0.00    +0.028 C 
BRANCH  19  20
ATOM     20  CG  LEU A   7       3.667  -2.354  25.489  0.00  0.00    +0.002 C 
ATOM     21  CD2 LEU A   7       3.509  -1.247  26.537  0.00  0.00    +0.000 C 
ATOM     22  CD1 LEU A   7       5.066  -3.001  25.485  0.00  0.00    +0.000 C 
ENDBRANCH  19  20
ENDBRANCH  16  19
ENDBRANCH  13  16
ENDBRANCH  11  12
BRANCH  11  23
ATOM     23  CB  SER A   6       6.262  -1.857  19.364  0.00  0.00    +0.166 C 
BRANCH  23  24
ATOM     24  OG  SER A   6       6.776  -2.028  20.650  0.00  0.00    -0.380 OA
ATOM     25  H   SER A   6       6.640  -1.198  21.172  0.00  0.00    +0.211 HD
ENDBRANCH  23  24
ENDBRANCH  11  23
ENDBRANCH   8  11
ENDBRANCH   5   7
ENDBRANCH   3   5
BRANCH   1  26
ATOM     26  CA  GLY A   4       4.458   2.140  23.354  0.00  0.00    +0.176 C 
BRANCH  26  28
ATOM     27  C   GLY A   3       6.584   1.151  22.704  0.00  0.00    +0.243 C 
ATOM     28  N   GLY A   4       5.881   2.204  23.103  0.00  0.00    -0.295 N 
ATOM     29  H   GLY A   4       6.373   3.110  23.240  0.00  0.00    +0.150 HD
ATOM     30  O   GLY A   3       6.081   0.025  22.482  0.00  0.00    -0.273 OA
BRANCH  27  31
ATOM     31  CA  GLY A   3       8.069   1.386  22.538  0.00  0.00    +0.176 C 
BRANCH  31  33
ATOM     32  C   GLY A   2       8.428   1.263  20.144  0.00  0.00    +0.243 C 
ATOM     33  N   GLY A   3       8.323   2.007  21.220  0.00  0.00    -0.295 N 
ATOM     34  H   GLY A   3       8.419   3.040  21.145  0.00  0.00    +0.150 HD
ATOM     35  O   GLY A   2       8.738   0.080  20.200  0.00  0.00    -0.273 OA
BRANCH  32  36
ATOM     36  CA  GLY A   2       8.225   1.933  18.811  0.00  0.00    +0.176 C 
BRANCH  36  39
ATOM     37  C   THR A   1      10.298   2.804  17.935  0.00  0.00    +0.241 C 
ATOM     38  O   THR A   1      10.143   3.866  18.530  0.00  0.00    -0.274 OA
ATOM     39  N   GLY A   2       9.417   1.814  18.005  0.00  0.00    -0.295 N 
ATOM     40  H   GLY A   2       9.588   0.938  17.471  0.00  0.00    +0.150 HD
BRANCH  37  41
ATOM     41  CA  THR A   1      11.508   2.620  17.023  0.00  0.00    +0.172 C 
BRANCH  41  42
ATOM     42  N   THR A   1      11.602   1.283  16.478  0.00  0.00    -0.236 NA
ATOM     43  H   THR A   1      11.211   1.105  15.531  0.00  0.00    +0.142 HD
ENDBRANCH  41  42
BRANCH  41  44
ATOM     44  CB  THR A   1      11.338   3.694  15.907  0.00  0.00    +0.135 C 
ATOM     45  CG2 THR A   1      12.606   3.839  15.103  0.00  0.00    +0.034 C 
BRANCH  44  46
ATOM     46  OG1 THR A   1      10.252   3.318  15.063  0.00  0.00    -0.383 OA
ATOM     47  HG1 THR A   1      10.444   2.437  14.653  0.00  0.00    +0.210 HD
ENDBRANCH  44  46
ENDBRANCH  41  44
ENDBRANCH  37  41
ENDBRANCH  36  39
ENDBRANCH  32  36
ENDBRANCH  31  33
ENDBRANCH  27  31
ENDBRANCH  26  28
ENDBRANCH   1  26
TORSDOF 20
REMARK  Name = ../refined-set-2016/3c39/3c39_pocket.pdb
REMARK  114 active torsions:
REMARK  status: ('A' for Active; 'I' for Inactive)
REMARK    1  A    between atoms: _1  and  _3
REMARK    2  A    between atoms: _3  and  _4
REMARK    3  A    between atoms: _3  and  _6
REMARK    4  A    between atoms: _6  and  _7
REMARK    5  A    between atoms: _7  and  _8
REMARK    6  A    between atoms: _8  and  _9
REMARK    7  A    between atoms: _18  and  _20
REMARK    8  A    between atoms: _20  and  _21
REMARK    9  A    between atoms: _20  and  _23
REMARK   10  A    between atoms: _26  and  _28
REMARK   11  A    between atoms: _28  and  _29
REMARK   12  A    between atoms: _28  and  _31
REMARK   13  A    between atoms: _31  and  _32
REMARK   14  A    between atoms: _35  and  _37
REMARK   15  A    between atoms: _37  and  _38
REMARK   16  A    between atoms: _37  and  _40
REMARK   17  A    between atoms: _40  and  _41
REMARK   18  A    between atoms: _47  and  _49
REMARK   19  A    between atoms: _49  and  _50
REMARK   20  A    between atoms: _49  and  _52
REMARK   21  A    between atoms: _52  and  _53
REMARK   22  A    between atoms: _58  and  _60
REMARK   23  A    between atoms: _60  and  _61
REMARK   24  A    between atoms: _60  and  _63
REMARK   25  A    between atoms: _66  and  _68
REMARK   26  A    between atoms: _68  and  _69
REMARK   27  A    between atoms: _68  and  _71
REMARK   28  A    between atoms: _71  and  _72
REMARK   29  A    between atoms: _72  and  _73
REMARK   30  A    between atoms: _73  and  _74
REMARK   31  A    between atoms: _83  and  _85
REMARK   32  A    between atoms: _85  and  _86
REMARK   33  A    between atoms: _85  and  _88
REMARK   34  A    between atoms: _88  and  _89
REMARK   35  A    between atoms: _91  and  _93
REMARK   36  A    between atoms: _93  and  _94
REMARK   37  A    between atoms: _93  and  _96
REMARK   38  A    between atoms: _96  and  _97
REMARK   39  A    between atoms: _102  and  _104
REMARK   40  A    between atoms: _104  and  _105
REMARK   41  A    between atoms: _104  and  _107
REMARK   42  A    between atoms: _107  and  _108
REMARK   43  A    between atoms: _111  and  _113
REMARK   44  A    between atoms: _113  and  _114
REMARK   45  A    between atoms: _116  and  _118
REMARK   46  A    between atoms: _118  and  _119
REMARK   47  A    between atoms: _118  and  _121
REMARK   48  A    between atoms: _121  and  _122
REMARK   49  A    between atoms: _122  and  _123
REMARK   50  A    between atoms: _123  and  _124
REMARK   51  A    between atoms: _134  and  _135
REMARK   52  A    between atoms: _140  and  _142
REMARK   53  A    between atoms: _142  and  _143
REMARK   54  A    between atoms: _142  and  _145
REMARK   55  A    between atoms: _145  and  _146
REMARK   56  A    between atoms: _149  and  _151
REMARK   57  A    between atoms: _151  and  _152
REMARK   58  A    between atoms: _151  and  _154
REMARK   59  A    between atoms: _154  and  _155
REMARK   60  A    between atoms: _155  and  _156
REMARK   61  A    between atoms: _156  and  _157
REMARK   62  A    between atoms: _166  and  _168
REMARK   63  A    between atoms: _168  and  _169
REMARK   64  A    between atoms: _168  and  _171
REMARK   65  A    between atoms: _171  and  _172
REMARK   66  A    between atoms: _172  and  _173
REMARK   67  A    between atoms: _176  and  _178
REMARK   68  A    between atoms: _178  and  _179
REMARK   69  A    between atoms: _182  and  _184
REMARK   70  A    between atoms: _184  and  _185
REMARK   71  A    between atoms: _184  and  _187
REMARK   72  A    between atoms: _187  and  _188
REMARK   73  A    between atoms: _194  and  _196
REMARK   74  A    between atoms: _196  and  _197
REMARK   75  A    between atoms: _199  and  _201
REMARK   76  A    between atoms: _201  and  _202
REMARK   77  A    between atoms: _201  and  _204
REMARK   78  A    between atoms: _204  and  _205
REMARK   79  A    between atoms: _208  and  _210
REMARK   80  A    between atoms: _210  and  _211
REMARK   81  A    between atoms: _214  and  _216
REMARK   82  A    between atoms: _216  and  _217
REMARK   83  A    between atoms: _216  and  _219
REMARK   84  A    between atoms: _219  and  _220
REMARK   85  A    between atoms: _225  and  _227
REMARK   86  A    between atoms: _227  and  _228
REMARK   87  A    between atoms: _227  and  _230
REMARK   88  A    between atoms: _230  and  _231
REMARK   89  A    between atoms: _231  and  _232
REMARK   90  A    between atoms: _232  and  _233
REMARK   91  A    between atoms: _242  and  _244
REMARK   92  A    between atoms: _244  and  _245
REMARK   93  A    between atoms: _244  and  _247
REMARK   94  A    between atoms: _247  and  _248
REMARK   95  A    between atoms: _253  and  _255
REMARK   96  A    between atoms: _255  and  _256
REMARK   97  A    between atoms: _255  and  _258
REMARK   98  A    between atoms: _258  and  _259
REMARK   99  A    between atoms: _262  and  _264
REMARK  100  A    between atoms: _264  and  _265
REMARK  101  A    between atoms: _267  and  _269
REMARK  102  A    between atoms: _269  and  _270
REMARK  103  A    between atoms: _272  and  _274
REMARK  104  A    between atoms: _274  and  _275
REMARK  105  A    between atoms: _277  and  _279
REMARK  106  A    between atoms: _279  and  _280
REMARK  107  A    between atoms: _283  and  _285
REMARK  108  A    between atoms: _285  and  _286
REMARK  109  A    between atoms: _285  and  _288
REMARK  110  A    between atoms: _288  and  _289
REMARK  111  A    between atoms: _291  and  _293
REMARK  112  A    between atoms: _293  and  _294
REMARK  113  A    between atoms: _293  and  _296
REMARK  114  A    between atoms: _296  and  _297
REMARK                            x       y       z     vdW  Elec       q    Type
REMARK                         _______ _______ _______ _____ _____    ______ ____
ROOT
ATOM      1  O   HOH     1       9.096   5.988  14.605  0.00  0.00    +0.000 OA
ENDROOT
TORSDOF 0
REMARK  Name = ../refined-set-2016/3c39/3c39_pocket.pdb
REMARK  114 active torsions:
REMARK  status: ('A' for Active; 'I' for Inactive)
REMARK    1  A    between atoms: _1  and  _3
REMARK    2  A    between atoms: _3  and  _4
REMARK    3  A    between atoms: _3  and  _6
REMARK    4  A    between atoms: _6  and  _7
REMARK    5  A    between atoms: _7  and  _8
REMARK    6  A    between atoms: _8  and  _9
REMARK    7  A    between atoms: _18  and  _20
REMARK    8  A    between atoms: _20  and  _21
REMARK    9  A    between atoms: _20  and  _23
REMARK   10  A    between atoms: _26  and  _28
REMARK   11  A    between atoms: _28  and  _29
REMARK   12  A    between atoms: _28  and  _31
REMARK   13  A    between atoms: _31  and  _32
REMARK   14  A    between atoms: _35  and  _37
REMARK   15  A    between atoms: _37  and  _38
REMARK   16  A    between atoms: _37  and  _40
REMARK   17  A    between atoms: _40  and  _41
REMARK   18  A    between atoms: _47  and  _49
REMARK   19  A    between atoms: _49  and  _50
REMARK   20  A    between atoms: _49  and  _52
REMARK   21  A    between atoms: _52  and  _53
REMARK   22  A    between atoms: _58  and  _60
REMARK   23  A    between atoms: _60  and  _61
REMARK   24  A    between atoms: _60  and  _63
REMARK   25  A    between atoms: _66  and  _68
REMARK   26  A    between atoms: _68  and  _69
REMARK   27  A    between atoms: _68  and  _71
REMARK   28  A    between atoms: _71  and  _72
REMARK   29  A    between atoms: _72  and  _73
REMARK   30  A    between atoms: _73  and  _74
REMARK   31  A    between atoms: _83  and  _85
REMARK   32  A    between atoms: _85  and  _86
REMARK   33  A    between atoms: _85  and  _88
REMARK   34  A    between atoms: _88  and  _89
REMARK   35  A    between atoms: _91  and  _93
REMARK   36  A    between atoms: _93  and  _94
REMARK   37  A    between atoms: _93  and  _96
REMARK   38  A    between atoms: _96  and  _97
REMARK   39  A    between atoms: _102  and  _104
REMARK   40  A    between atoms: _104  and  _105
REMARK   41  A    between atoms: _104  and  _107
REMARK   42  A    between atoms: _107  and  _108
REMARK   43  A    between atoms: _111  and  _113
REMARK   44  A    between atoms: _113  and  _114
REMARK   45  A    between atoms: _116  and  _118
REMARK   46  A    between atoms: _118  and  _119
REMARK   47  A    between atoms: _118  and  _121
REMARK   48  A    between atoms: _121  and  _122
REMARK   49  A    between atoms: _122  and  _123
REMARK   50  A    between atoms: _123  and  _124
REMARK   51  A    between atoms: _134  and  _135
REMARK   52  A    between atoms: _140  and  _142
REMARK   53  A    between atoms: _142  and  _143
REMARK   54  A    between atoms: _142  and  _145
REMARK   55  A    between atoms: _145  and  _146
REMARK   56  A    between atoms: _149  and  _151
REMARK   57  A    between atoms: _151  and  _152
REMARK   58  A    between atoms: _151  and  _154
REMARK   59  A    between atoms: _154  and  _155
REMARK   60  A    between atoms: _155  and  _156
REMARK   61  A    between atoms: _156  and  _157
REMARK   62  A    between atoms: _166  and  _168
REMARK   63  A    between atoms: _168  and  _169
REMARK   64  A    between atoms: _168  and  _171
REMARK   65  A    between atoms: _171  and  _172
REMARK   66  A    between atoms: _172  and  _173
REMARK   67  A    between atoms: _176  and  _178
REMARK   68  A    between atoms: _178  and  _179
REMARK   69  A    between atoms: _182  and  _184
REMARK   70  A    between atoms: _184  and  _185
REMARK   71  A    between atoms: _184  and  _187
REMARK   72  A    between atoms: _187  and  _188
REMARK   73  A    between atoms: _194  and  _196
REMARK   74  A    between atoms: _196  and  _197
REMARK   75  A    between atoms: _199  and  _201
REMARK   76  A    between atoms: _201  and  _202
REMARK   77  A    between atoms: _201  and  _204
REMARK   78  A    between atoms: _204  and  _205
REMARK   79  A    between atoms: _208  and  _210
REMARK   80  A    between atoms: _210  and  _211
REMARK   81  A    between atoms: _214  and  _216
REMARK   82  A    between atoms: _216  and  _217
REMARK   83  A    between atoms: _216  and  _219
REMARK   84  A    between atoms: _219  and  _220
REMARK   85  A    between atoms: _225  and  _227
REMARK   86  A    between atoms: _227  and  _228
REMARK   87  A    between atoms: _227  and  _230
REMARK   88  A    between atoms: _230  and  _231
REMARK   89  A    between atoms: _231  and  _232
REMARK   90  A    between atoms: _232  and  _233
REMARK   91  A    between atoms: _242  and  _244
REMARK   92  A    between atoms: _244  and  _245
REMARK   93  A    between atoms: _244  and  _247
REMARK   94  A    between atoms: _247  and  _248
REMARK   95  A    between atoms: _253  and  _255
REMARK   96  A    between atoms: _255  and  _256
REMARK   97  A    between atoms: _255  and  _258
REMARK   98  A    between atoms: _258  and  _259
REMARK   99  A    between atoms: _262  and  _264
REMARK  100  A    between atoms: _264  and  _265
REMARK  101  A    between atoms: _267  and  _269
REMARK  102  A    between atoms: _269  and  _270
REMARK  103  A    between atoms: _272  and  _274
REMARK  104  A    between atoms: _274  and  _275
REMARK  105  A    between atoms: _277  and  _279
REMARK  106  A    between atoms: _279  and  _280
REMARK  107  A    between atoms: _283  and  _285
REMARK  108  A    between atoms: _285  and  _286
REMARK  109  A    between atoms: _285  and  _288
REMARK  110  A    between atoms: _288  and  _289
REMARK  111  A    between atoms: _291  and  _293
REMARK  112  A    between atoms: _293  and  _294
REMARK  113  A    between atoms: _293  and  _296
REMARK  114  A    between atoms: _296  and  _297
REMARK                            x       y       z     vdW  Elec       q    Type
REMARK                         _______ _______ _______ _____ _____    ______ ____
ROOT
ATOM      1  O   HOH     1       1.972  14.285  20.087  0.00  0.00    +0.000 OA
ENDROOT
TORSDOF 0
REMARK  Name = ../refined-set-2016/3c39/3c39_pocket.pdb
REMARK  114 active torsions:
REMARK  status: ('A' for Active; 'I' for Inactive)
REMARK    1  A    between atoms: _1  and  _3
REMARK    2  A    between atoms: _3  and  _4
REMARK    3  A    between atoms: _3  and  _6
REMARK    4  A    between atoms: _6  and  _7
REMARK    5  A    between atoms: _7  and  _8
REMARK    6  A    between atoms: _8  and  _9
REMARK    7  A    between atoms: _18  and  _20
REMARK    8  A    between atoms: _20  and  _21
REMARK    9  A    between atoms: _20  and  _23
REMARK   10  A    between atoms: _26  and  _28
REMARK   11  A    between atoms: _28  and  _29
REMARK   12  A    between atoms: _28  and  _31
REMARK   13  A    between atoms: _31  and  _32
REMARK   14  A    between atoms: _35  and  _37
REMARK   15  A    between atoms: _37  and  _38
REMARK   16  A    between atoms: _37  and  _40
REMARK   17  A    between atoms: _40  and  _41
REMARK   18  A    between atoms: _47  and  _49
REMARK   19  A    between atoms: _49  and  _50
REMARK   20  A    between atoms: _49  and  _52
REMARK   21  A    between atoms: _52  and  _53
REMARK   22  A    between atoms: _58  and  _60
REMARK   23  A    between atoms: _60  and  _61
REMARK   24  A    between atoms: _60  and  _63
REMARK   25  A    between atoms: _66  and  _68
REMARK   26  A    between atoms: _68  and  _69
REMARK   27  A    between atoms: _68  and  _71
REMARK   28  A    between atoms: _71  and  _72
REMARK   29  A    between atoms: _72  and  _73
REMARK   30  A    between atoms: _73  and  _74
REMARK   31  A    between atoms: _83  and  _85
REMARK   32  A    between atoms: _85  and  _86
REMARK   33  A    between atoms: _85  and  _88
REMARK   34  A    between atoms: _88  and  _89
REMARK   35  A    between atoms: _91  and  _93
REMARK   36  A    between atoms: _93  and  _94
REMARK   37  A    between atoms: _93  and  _96
REMARK   38  A    between atoms: _96  and  _97
REMARK   39  A    between atoms: _102  and  _104
REMARK   40  A    between atoms: _104  and  _105
REMARK   41  A    between atoms: _104  and  _107
REMARK   42  A    between atoms: _107  and  _108
REMARK   43  A    between atoms: _111  and  _113
REMARK   44  A    between atoms: _113  and  _114
REMARK   45  A    between atoms: _116  and  _118
REMARK   46  A    between atoms: _118  and  _119
REMARK   47  A    between atoms: _118  and  _121
REMARK   48  A    between atoms: _121  and  _122
REMARK   49  A    between atoms: _122  and  _123
REMARK   50  A    between atoms: _123  and  _124
REMARK   51  A    between atoms: _134  and  _135
REMARK   52  A    between atoms: _140  and  _142
REMARK   53  A    between atoms: _142  and  _143
REMARK   54  A    between atoms: _142  and  _145
REMARK   55  A    between atoms: _145  and  _146
REMARK   56  A    between atoms: _149  and  _151
REMARK   57  A    between atoms: _151  and  _152
REMARK   58  A    between atoms: _151  and  _154
REMARK   59  A    between atoms: _154  and  _155
REMARK   60  A    between atoms: _155  and  _156
REMARK   61  A    between atoms: _156  and  _157
REMARK   62  A    between atoms: _166  and  _168
REMARK   63  A    between atoms: _168  and  _169
REMARK   64  A    between atoms: _168  and  _171
REMARK   65  A    between atoms: _171  and  _172
REMARK   66  A    between atoms: _172  and  _173
REMARK   67  A    between atoms: _176  and  _178
REMARK   68  A    between atoms: _178  and  _179
REMARK   69  A    between atoms: _182  and  _184
REMARK   70  A    between atoms: _184  and  _185
REMARK   71  A    between atoms: _184  and  _187
REMARK   72  A    between atoms: _187  and  _188
REMARK   73  A    between atoms: _194  and  _196
REMARK   74  A    between atoms: _196  and  _197
REMARK   75  A    between atoms: _199  and  _201
REMARK   76  A    between atoms: _201  and  _202
REMARK   77  A    between atoms: _201  and  _204
REMARK   78  A    between atoms: _204  and  _205
REMARK   79  A    between atoms: _208  and  _210
REMARK   80  A    between atoms: _210  and  _211
REMARK   81  A    between atoms: _214  and  _216
REMARK   82  A    between atoms: _216  and  _217
REMARK   83  A    between atoms: _216  and  _219
REMARK   84  A    between atoms: _219  and  _220
REMARK   85  A    between atoms: _225  and  _227
REMARK   86  A    between atoms: _227  and  _228
REMARK   87  A    between atoms: _227  and  _230
REMARK   88  A    between atoms: _230  and  _231
REMARK   89  A    between atoms: _231  and  _232
REMARK   90  A    between atoms: _232  and  _233
REMARK   91  A    between atoms: _242  and  _244
REMARK   92  A    between atoms: _244  and  _245
REMARK   93  A    between atoms: _244  and  _247
REMARK   94  A    between atoms: _247  and  _248
REMARK   95  A    between atoms: _253  and  _255
REMARK   96  A    between atoms: _255  and  _256
REMARK   97  A    between atoms: _255  and  _258
REMARK   98  A    between atoms: _258  and  _259
REMARK   99  A    between atoms: _262  and  _264
REMARK  100  A    between atoms: _264  and  _265
REMARK  101  A    between atoms: _267  and  _269
REMARK  102  A    between atoms: _269  and  _270
REMARK  103  A    between atoms: _272  and  _274
REMARK  104  A    between atoms: _274  and  _275
REMARK  105  A    between atoms: _277  and  _279
REMARK  106  A    between atoms: _279  and  _280
REMARK  107  A    between atoms: _283  and  _285
REMARK  108  A    between atoms: _285  and  _286
REMARK  109  A    between atoms: _285  and  _288
REMARK  110  A    between atoms: _288  and  _289
REMARK  111  A    between atoms: _291  and  _293
REMARK  112  A    between atoms: _293  and  _294
REMARK  113  A    between atoms: _293  and  _296
REMARK  114  A    between atoms: _296  and  _297
REMARK                            x       y       z     vdW  Elec       q    Type
REMARK                         _______ _______ _______ _____ _____    ______ ____
ROOT
ATOM      1  O   HOH     1      -4.603   9.148  21.496  0.00  0.00    +0.000 OA
ENDROOT
TORSDOF 0
REMARK  Name = ../refined-set-2016/3c39/3c39_pocket.pdb
REMARK  114 active torsions:
REMARK  status: ('A' for Active; 'I' for Inactive)
REMARK    1  A    between atoms: _1  and  _3
REMARK    2  A    between atoms: _3  and  _4
REMARK    3  A    between atoms: _3  and  _6
REMARK    4  A    between atoms: _6  and  _7
REMARK    5  A    between atoms: _7  and  _8
REMARK    6  A    between atoms: _8  and  _9
REMARK    7  A    between atoms: _18  and  _20
REMARK    8  A    between atoms: _20  and  _21
REMARK    9  A    between atoms: _20  and  _23
REMARK   10  A    between atoms: _26  and  _28
REMARK   11  A    between atoms: _28  and  _29
REMARK   12  A    between atoms: _28  and  _31
REMARK   13  A    between atoms: _31  and  _32
REMARK   14  A    between atoms: _35  and  _37
REMARK   15  A    between atoms: _37  and  _38
REMARK   16  A    between atoms: _37  and  _40
REMARK   17  A    between atoms: _40  and  _41
REMARK   18  A    between atoms: _47  and  _49
REMARK   19  A    between atoms: _49  and  _50
REMARK   20  A    between atoms: _49  and  _52
REMARK   21  A    between atoms: _52  and  _53
REMARK   22  A    between atoms: _58  and  _60
REMARK   23  A    between atoms: _60  and  _61
REMARK   24  A    between atoms: _60  and  _63
REMARK   25  A    between atoms: _66  and  _68
REMARK   26  A    between atoms: _68  and  _69
REMARK   27  A    between atoms: _68  and  _71
REMARK   28  A    between atoms: _71  and  _72
REMARK   29  A    between atoms: _72  and  _73
REMARK   30  A    between atoms: _73  and  _74
REMARK   31  A    between atoms: _83  and  _85
REMARK   32  A    between atoms: _85  and  _86
REMARK   33  A    between atoms: _85  and  _88
REMARK   34  A    between atoms: _88  and  _89
REMARK   35  A    between atoms: _91  and  _93
REMARK   36  A    between atoms: _93  and  _94
REMARK   37  A    between atoms: _93  and  _96
REMARK   38  A    between atoms: _96  and  _97
REMARK   39  A    between atoms: _102  and  _104
REMARK   40  A    between atoms: _104  and  _105
REMARK   41  A    between atoms: _104  and  _107
REMARK   42  A    between atoms: _107  and  _108
REMARK   43  A    between atoms: _111  and  _113
REMARK   44  A    between atoms: _113  and  _114
REMARK   45  A    between atoms: _116  and  _118
REMARK   46  A    between atoms: _118  and  _119
REMARK   47  A    between atoms: _118  and  _121
REMARK   48  A    between atoms: _121  and  _122
REMARK   49  A    between atoms: _122  and  _123
REMARK   50  A    between atoms: _123  and  _124
REMARK   51  A    between atoms: _134  and  _135
REMARK   52  A    between atoms: _140  and  _142
REMARK   53  A    between atoms: _142  and  _143
REMARK   54  A    between atoms: _142  and  _145
REMARK   55  A    between atoms: _145  and  _146
REMARK   56  A    between atoms: _149  and  _151
REMARK   57  A    between atoms: _151  and  _152
REMARK   58  A    between atoms: _151  and  _154
REMARK   59  A    between atoms: _154  and  _155
REMARK   60  A    between atoms: _155  and  _156
REMARK   61  A    between atoms: _156  and  _157
REMARK   62  A    between atoms: _166  and  _168
REMARK   63  A    between atoms: _168  and  _169
REMARK   64  A    between atoms: _168  and  _171
REMARK   65  A    between atoms: _171  and  _172
REMARK   66  A    between atoms: _172  and  _173
REMARK   67  A    between atoms: _176  and  _178
REMARK   68  A    between atoms: _178  and  _179
REMARK   69  A    between atoms: _182  and  _184
REMARK   70  A    between atoms: _184  and  _185
REMARK   71  A    between atoms: _184  and  _187
REMARK   72  A    between atoms: _187  and  _188
REMARK   73  A    between atoms: _194  and  _196
REMARK   74  A    between atoms: _196  and  _197
REMARK   75  A    between atoms: _199  and  _201
REMARK   76  A    between atoms: _201  and  _202
REMARK   77  A    between atoms: _201  and  _204
REMARK   78  A    between atoms: _204  and  _205
REMARK   79  A    between atoms: _208  and  _210
REMARK   80  A    between atoms: _210  and  _211
REMARK   81  A    between atoms: _214  and  _216
REMARK   82  A    between atoms: _216  and  _217
REMARK   83  A    between atoms: _216  and  _219
REMARK   84  A    between atoms: _219  and  _220
REMARK   85  A    between atoms: _225  and  _227
REMARK   86  A    between atoms: _227  and  _228
REMARK   87  A    between atoms: _227  and  _230
REMARK   88  A    between atoms: _230  and  _231
REMARK   89  A    between atoms: _231  and  _232
REMARK   90  A    between atoms: _232  and  _233
REMARK   91  A    between atoms: _242  and  _244
REMARK   92  A    between atoms: _244  and  _245
REMARK   93  A    between atoms: _244  and  _247
REMARK   94  A    between atoms: _247  and  _248
REMARK   95  A    between atoms: _253  and  _255
REMARK   96  A    between atoms: _255  and  _256
REMARK   97  A    between atoms: _255  and  _258
REMARK   98  A    between atoms: _258  and  _259
REMARK   99  A    between atoms: _262  and  _264
REMARK  100  A    between atoms: _264  and  _265
REMARK  101  A    between atoms: _267  and  _269
REMARK  102  A    between atoms: _269  and  _270
REMARK  103  A    between atoms: _272  and  _274
REMARK  104  A    between atoms: _274  and  _275
REMARK  105  A    between atoms: _277  and  _279
REMARK  106  A    between atoms: _279  and  _280
REMARK  107  A    between atoms: _283  and  _285
REMARK  108  A    between atoms: _285  and  _286
REMARK  109  A    between atoms: _285  and  _288
REMARK  110  A    between atoms: _288  and  _289
REMARK  111  A    between atoms: _291  and  _293
REMARK  112  A    between atoms: _293  and  _294
REMARK  113  A    between atoms: _293  and  _296
REMARK  114  A    between atoms: _296  and  _297
REMARK                            x       y       z     vdW  Elec       q    Type
REMARK                         _______ _______ _______ _____ _____    ______ ____
ROOT
ATOM      1  O   HOH     1       3.997   5.838  24.440  0.00  0.00    +0.000 OA
ENDROOT
TORSDOF 0
REMARK  Name = ../refined-set-2016/3c39/3c39_pocket.pdb
REMARK  114 active torsions:
REMARK  status: ('A' for Active; 'I' for Inactive)
REMARK    1  A    between atoms: _1  and  _3
REMARK    2  A    between atoms: _3  and  _4
REMARK    3  A    between atoms: _3  and  _6
REMARK    4  A    between atoms: _6  and  _7
REMARK    5  A    between atoms: _7  and  _8
REMARK    6  A    between atoms: _8  and  _9
REMARK    7  A    between atoms: _18  and  _20
REMARK    8  A    between atoms: _20  and  _21
REMARK    9  A    between atoms: _20  and  _23
REMARK   10  A    between atoms: _26  and  _28
REMARK   11  A    between atoms: _28  and  _29
REMARK   12  A    between atoms: _28  and  _31
REMARK   13  A    between atoms: _31  and  _32
REMARK   14  A    between atoms: _35  and  _37
REMARK   15  A    between atoms: _37  and  _38
REMARK   16  A    between atoms: _37  and  _40
REMARK   17  A    between atoms: _40  and  _41
REMARK   18  A    between atoms: _47  and  _49
REMARK   19  A    between atoms: _49  and  _50
REMARK   20  A    between atoms: _49  and  _52
REMARK   21  A    between atoms: _52  and  _53
REMARK   22  A    between atoms: _58  and  _60
REMARK   23  A    between atoms: _60  and  _61
REMARK   24  A    between atoms: _60  and  _63
REMARK   25  A    between atoms: _66  and  _68
REMARK   26  A    between atoms: _68  and  _69
REMARK   27  A    between atoms: _68  and  _71
REMARK   28  A    between atoms: _71  and  _72
REMARK   29  A    between atoms: _72  and  _73
REMARK   30  A    between atoms: _73  and  _74
REMARK   31  A    between atoms: _83  and  _85
REMARK   32  A    between atoms: _85  and  _86
REMARK   33  A    between atoms: _85  and  _88
REMARK   34  A    between atoms: _88  and  _89
REMARK   35  A    between atoms: _91  and  _93
REMARK   36  A    between atoms: _93  and  _94
REMARK   37  A    between atoms: _93  and  _96
REMARK   38  A    between atoms: _96  and  _97
REMARK   39  A    between atoms: _102  and  _104
REMARK   40  A    between atoms: _104  and  _105
REMARK   41  A    between atoms: _104  and  _107
REMARK   42  A    between atoms: _107  and  _108
REMARK   43  A    between atoms: _111  and  _113
REMARK   44  A    between atoms: _113  and  _114
REMARK   45  A    between atoms: _116  and  _118
REMARK   46  A    between atoms: _118  and  _119
REMARK   47  A    between atoms: _118  and  _121
REMARK   48  A    between atoms: _121  and  _122
REMARK   49  A    between atoms: _122  and  _123
REMARK   50  A    between atoms: _123  and  _124
REMARK   51  A    between atoms: _134  and  _135
REMARK   52  A    between atoms: _140  and  _142
REMARK   53  A    between atoms: _142  and  _143
REMARK   54  A    between atoms: _142  and  _145
REMARK   55  A    between atoms: _145  and  _146
REMARK   56  A    between atoms: _149  and  _151
REMARK   57  A    between atoms: _151  and  _152
REMARK   58  A    between atoms: _151  and  _154
REMARK   59  A    between atoms: _154  and  _155
REMARK   60  A    between atoms: _155  and  _156
REMARK   61  A    between atoms: _156  and  _157
REMARK   62  A    between atoms: _166  and  _168
REMARK   63  A    between atoms: _168  and  _169
REMARK   64  A    between atoms: _168  and  _171
REMARK   65  A    between atoms: _171  and  _172
REMARK   66  A    between atoms: _172  and  _173
REMARK   67  A    between atoms: _176  and  _178
REMARK   68  A    between atoms: _178  and  _179
REMARK   69  A    between atoms: _182  and  _184
REMARK   70  A    between atoms: _184  and  _185
REMARK   71  A    between atoms: _184  and  _187
REMARK   72  A    between atoms: _187  and  _188
REMARK   73  A    between atoms: _194  and  _196
REMARK   74  A    between atoms: _196  and  _197
REMARK   75  A    between atoms: _199  and  _201
REMARK   76  A    between atoms: _201  and  _202
REMARK   77  A    between atoms: _201  and  _204
REMARK   78  A    between atoms: _204  and  _205
REMARK   79  A    between atoms: _208  and  _210
REMARK   80  A    between atoms: _210  and  _211
REMARK   81  A    between atoms: _214  and  _216
REMARK   82  A    between atoms: _216  and  _217
REMARK   83  A    between atoms: _216  and  _219
REMARK   84  A    between atoms: _219  and  _220
REMARK   85  A    between atoms: _225  and  _227
REMARK   86  A    between atoms: _227  and  _228
REMARK   87  A    between atoms: _227  and  _230
REMARK   88  A    between atoms: _230  and  _231
REMARK   89  A    between atoms: _231  and  _232
REMARK   90  A    between atoms: _232  and  _233
REMARK   91  A    between atoms: _242  and  _244
REMARK   92  A    between atoms: _244  and  _245
REMARK   93  A    between atoms: _244  and  _247
REMARK   94  A    between atoms: _247  and  _248
REMARK   95  A    between atoms: _253  and  _255
REMARK   96  A    between atoms: _255  and  _256
REMARK   97  A    between atoms: _255  and  _258
REMARK   98  A    between atoms: _258  and  _259
REMARK   99  A    between atoms: _262  and  _264
REMARK  100  A    between atoms: _264  and  _265
REMARK  101  A    between atoms: _267  and  _269
REMARK  102  A    between atoms: _269  and  _270
REMARK  103  A    between atoms: _272  and  _274
REMARK  104  A    between atoms: _274  and  _275
REMARK  105  A    between atoms: _277  and  _279
REMARK  106  A    between atoms: _279  and  _280
REMARK  107  A    between atoms: _283  and  _285
REMARK  108  A    between atoms: _285  and  _286
REMARK  109  A    between atoms: _285  and  _288
REMARK  110  A    between atoms: _288  and  _289
REMARK  111  A    between atoms: _291  and  _293
REMARK  112  A    between atoms: _293  and  _294
REMARK  113  A    between atoms: _293  and  _296
REMARK  114  A    between atoms: _296  and  _297
REMARK                            x       y       z     vdW  Elec       q    Type
REMARK                         _______ _______ _______ _____ _____    ______ ____
ROOT
ATOM      1  O   HOH     1       2.796  16.465  26.963  0.00  0.00    +0.000 OA
ENDROOT
TORSDOF 0
REMARK  Name = ../refined-set-2016/3c39/3c39_pocket.pdb
REMARK  114 active torsions:
REMARK  status: ('A' for Active; 'I' for Inactive)
REMARK    1  A    between atoms: _1  and  _3
REMARK    2  A    between atoms: _3  and  _4
REMARK    3  A    between atoms: _3  and  _6
REMARK    4  A    between atoms: _6  and  _7
REMARK    5  A    between atoms: _7  and  _8
REMARK    6  A    between atoms: _8  and  _9
REMARK    7  A    between atoms: _18  and  _20
REMARK    8  A    between atoms: _20  and  _21
REMARK    9  A    between atoms: _20  and  _23
REMARK   10  A    between atoms: _26  and  _28
REMARK   11  A    between atoms: _28  and  _29
REMARK   12  A    between atoms: _28  and  _31
REMARK   13  A    between atoms: _31  and  _32
REMARK   14  A    between atoms: _35  and  _37
REMARK   15  A    between atoms: _37  and  _38
REMARK   16  A    between atoms: _37  and  _40
REMARK   17  A    between atoms: _40  and  _41
REMARK   18  A    between atoms: _47  and  _49
REMARK   19  A    between atoms: _49  and  _50
REMARK   20  A    between atoms: _49  and  _52
REMARK   21  A    between atoms: _52  and  _53
REMARK   22  A    between atoms: _58  and  _60
REMARK   23  A    between atoms: _60  and  _61
REMARK   24  A    between atoms: _60  and  _63
REMARK   25  A    between atoms: _66  and  _68
REMARK   26  A    between atoms: _68  and  _69
REMARK   27  A    between atoms: _68  and  _71
REMARK   28  A    between atoms: _71  and  _72
REMARK   29  A    between atoms: _72  and  _73
REMARK   30  A    between atoms: _73  and  _74
REMARK   31  A    between atoms: _83  and  _85
REMARK   32  A    between atoms: _85  and  _86
REMARK   33  A    between atoms: _85  and  _88
REMARK   34  A    between atoms: _88  and  _89
REMARK   35  A    between atoms: _91  and  _93
REMARK   36  A    between atoms: _93  and  _94
REMARK   37  A    between atoms: _93  and  _96
REMARK   38  A    between atoms: _96  and  _97
REMARK   39  A    between atoms: _102  and  _104
REMARK   40  A    between atoms: _104  and  _105
REMARK   41  A    between atoms: _104  and  _107
REMARK   42  A    between atoms: _107  and  _108
REMARK   43  A    between atoms: _111  and  _113
REMARK   44  A    between atoms: _113  and  _114
REMARK   45  A    between atoms: _116  and  _118
REMARK   46  A    between atoms: _118  and  _119
REMARK   47  A    between atoms: _118  and  _121
REMARK   48  A    between atoms: _121  and  _122
REMARK   49  A    between atoms: _122  and  _123
REMARK   50  A    between atoms: _123  and  _124
REMARK   51  A    between atoms: _134  and  _135
REMARK   52  A    between atoms: _140  and  _142
REMARK   53  A    between atoms: _142  and  _143
REMARK   54  A    between atoms: _142  and  _145
REMARK   55  A    between atoms: _145  and  _146
REMARK   56  A    between atoms: _149  and  _151
REMARK   57  A    between atoms: _151  and  _152
REMARK   58  A    between atoms: _151  and  _154
REMARK   59  A    between atoms: _154  and  _155
REMARK   60  A    between atoms: _155  and  _156
REMARK   61  A    between atoms: _156  and  _157
REMARK   62  A    between atoms: _166  and  _168
REMARK   63  A    between atoms: _168  and  _169
REMARK   64  A    between atoms: _168  and  _171
REMARK   65  A    between atoms: _171  and  _172
REMARK   66  A    between atoms: _172  and  _173
REMARK   67  A    between atoms: _176  and  _178
REMARK   68  A    between atoms: _178  and  _179
REMARK   69  A    between atoms: _182  and  _184
REMARK   70  A    between atoms: _184  and  _185
REMARK   71  A    between atoms: _184  and  _187
REMARK   72  A    between atoms: _187  and  _188
REMARK   73  A    between atoms: _194  and  _196
REMARK   74  A    between atoms: _196  and  _197
REMARK   75  A    between atoms: _199  and  _201
REMARK   76  A    between atoms: _201  and  _202
REMARK   77  A    between atoms: _201  and  _204
REMARK   78  A    between atoms: _204  and  _205
REMARK   79  A    between atoms: _208  and  _210
REMARK   80  A    between atoms: _210  and  _211
REMARK   81  A    between atoms: _214  and  _216
REMARK   82  A    between atoms: _216  and  _217
REMARK   83  A    between atoms: _216  and  _219
REMARK   84  A    between atoms: _219  and  _220
REMARK   85  A    between atoms: _225  and  _227
REMARK   86  A    between atoms: _227  and  _228
REMARK   87  A    between atoms: _227  and  _230
REMARK   88  A    between atoms: _230  and  _231
REMARK   89  A    between atoms: _231  and  _232
REMARK   90  A    between atoms: _232  and  _233
REMARK   91  A    between atoms: _242  and  _244
REMARK   92  A    between atoms: _244  and  _245
REMARK   93  A    between atoms: _244  and  _247
REMARK   94  A    between atoms: _247  and  _248
REMARK   95  A    between atoms: _253  and  _255
REMARK   96  A    between atoms: _255  and  _256
REMARK   97  A    between atoms: _255  and  _258
REMARK   98  A    between atoms: _258  and  _259
REMARK   99  A    between atoms: _262  and  _264
REMARK  100  A    between atoms: _264  and  _265
REMARK  101  A    between atoms: _267  and  _269
REMARK  102  A    between atoms: _269  and  _270
REMARK  103  A    between atoms: _272  and  _274
REMARK  104  A    between atoms: _274  and  _275
REMARK  105  A    between atoms: _277  and  _279
REMARK  106  A    between atoms: _279  and  _280
REMARK  107  A    between atoms: _283  and  _285
REMARK  108  A    between atoms: _285  and  _286
REMARK  109  A    between atoms: _285  and  _288
REMARK  110  A    between atoms: _288  and  _289
REMARK  111  A    between atoms: _291  and  _293
REMARK  112  A    between atoms: _293  and  _294
REMARK  113  A    between atoms: _293  and  _296
REMARK  114  A    between atoms: _296  and  _297
REMARK                            x       y       z     vdW  Elec       q    Type
REMARK                         _______ _______ _______ _____ _____    ______ ____
ROOT
ATOM      1  O   HOH     1       1.382  11.403  25.497  0.00  0.00    +0.000 OA
ENDROOT
TORSDOF 0
REMARK  Name = ../refined-set-2016/3c39/3c39_pocket.pdb
REMARK  114 active torsions:
REMARK  status: ('A' for Active; 'I' for Inactive)
REMARK    1  A    between atoms: _1  and  _3
REMARK    2  A    between atoms: _3  and  _4
REMARK    3  A    between atoms: _3  and  _6
REMARK    4  A    between atoms: _6  and  _7
REMARK    5  A    between atoms: _7  and  _8
REMARK    6  A    between atoms: _8  and  _9
REMARK    7  A    between atoms: _18  and  _20
REMARK    8  A    between atoms: _20  and  _21
REMARK    9  A    between atoms: _20  and  _23
REMARK   10  A    between atoms: _26  and  _28
REMARK   11  A    between atoms: _28  and  _29
REMARK   12  A    between atoms: _28  and  _31
REMARK   13  A    between atoms: _31  and  _32
REMARK   14  A    between atoms: _35  and  _37
REMARK   15  A    between atoms: _37  and  _38
REMARK   16  A    between atoms: _37  and  _40
REMARK   17  A    between atoms: _40  and  _41
REMARK   18  A    between atoms: _47  and  _49
REMARK   19  A    between atoms: _49  and  _50
REMARK   20  A    between atoms: _49  and  _52
REMARK   21  A    between atoms: _52  and  _53
REMARK   22  A    between atoms: _58  and  _60
REMARK   23  A    between atoms: _60  and  _61
REMARK   24  A    between atoms: _60  and  _63
REMARK   25  A    between atoms: _66  and  _68
REMARK   26  A    between atoms: _68  and  _69
REMARK   27  A    between atoms: _68  and  _71
REMARK   28  A    between atoms: _71  and  _72
REMARK   29  A    between atoms: _72  and  _73
REMARK   30  A    between atoms: _73  and  _74
REMARK   31  A    between atoms: _83  and  _85
REMARK   32  A    between atoms: _85  and  _86
REMARK   33  A    between atoms: _85  and  _88
REMARK   34  A    between atoms: _88  and  _89
REMARK   35  A    between atoms: _91  and  _93
REMARK   36  A    between atoms: _93  and  _94
REMARK   37  A    between atoms: _93  and  _96
REMARK   38  A    between atoms: _96  and  _97
REMARK   39  A    between atoms: _102  and  _104
REMARK   40  A    between atoms: _104  and  _105
REMARK   41  A    between atoms: _104  and  _107
REMARK   42  A    between atoms: _107  and  _108
REMARK   43  A    between atoms: _111  and  _113
REMARK   44  A    between atoms: _113  and  _114
REMARK   45  A    between atoms: _116  and  _118
REMARK   46  A    between atoms: _118  and  _119
REMARK   47  A    between atoms: _118  and  _121
REMARK   48  A    between atoms: _121  and  _122
REMARK   49  A    between atoms: _122  and  _123
REMARK   50  A    between atoms: _123  and  _124
REMARK   51  A    between atoms: _134  and  _135
REMARK   52  A    between atoms: _140  and  _142
REMARK   53  A    between atoms: _142  and  _143
REMARK   54  A    between atoms: _142  and  _145
REMARK   55  A    between atoms: _145  and  _146
REMARK   56  A    between atoms: _149  and  _151
REMARK   57  A    between atoms: _151  and  _152
REMARK   58  A    between atoms: _151  and  _154
REMARK   59  A    between atoms: _154  and  _155
REMARK   60  A    between atoms: _155  and  _156
REMARK   61  A    between atoms: _156  and  _157
REMARK   62  A    between atoms: _166  and  _168
REMARK   63  A    between atoms: _168  and  _169
REMARK   64  A    between atoms: _168  and  _171
REMARK   65  A    between atoms: _171  and  _172
REMARK   66  A    between atoms: _172  and  _173
REMARK   67  A    between atoms: _176  and  _178
REMARK   68  A    between atoms: _178  and  _179
REMARK   69  A    between atoms: _182  and  _184
REMARK   70  A    between atoms: _184  and  _185
REMARK   71  A    between atoms: _184  and  _187
REMARK   72  A    between atoms: _187  and  _188
REMARK   73  A    between atoms: _194  and  _196
REMARK   74  A    between atoms: _196  and  _197
REMARK   75  A    between atoms: _199  and  _201
REMARK   76  A    between atoms: _201  and  _202
REMARK   77  A    between atoms: _201  and  _204
REMARK   78  A    between atoms: _204  and  _205
REMARK   79  A    between atoms: _208  and  _210
REMARK   80  A    between atoms: _210  and  _211
REMARK   81  A    between atoms: _214  and  _216
REMARK   82  A    between atoms: _216  and  _217
REMARK   83  A    between atoms: _216  and  _219
REMARK   84  A    between atoms: _219  and  _220
REMARK   85  A    between atoms: _225  and  _227
REMARK   86  A    between atoms: _227  and  _228
REMARK   87  A    between atoms: _227  and  _230
REMARK   88  A    between atoms: _230  and  _231
REMARK   89  A    between atoms: _231  and  _232
REMARK   90  A    between atoms: _232  and  _233
REMARK   91  A    between atoms: _242  and  _244
REMARK   92  A    between atoms: _244  and  _245
REMARK   93  A    between atoms: _244  and  _247
REMARK   94  A    between atoms: _247  and  _248
REMARK   95  A    between atoms: _253  and  _255
REMARK   96  A    between atoms: _255  and  _256
REMARK   97  A    between atoms: _255  and  _258
REMARK   98  A    between atoms: _258  and  _259
REMARK   99  A    between atoms: _262  and  _264
REMARK  100  A    between atoms: _264  and  _265
REMARK  101  A    between atoms: _267  and  _269
REMARK  102  A    between atoms: _269  and  _270
REMARK  103  A    between atoms: _272  and  _274
REMARK  104  A    between atoms: _274  and  _275
REMARK  105  A    between atoms: _277  and  _279
REMARK  106  A    between atoms: _279  and  _280
REMARK  107  A    between atoms: _283  and  _285
REMARK  108  A    between atoms: _285  and  _286
REMARK  109  A    between atoms: _285  and  _288
REMARK  110  A    between atoms: _288  and  _289
REMARK  111  A    between atoms: _291  and  _293
REMARK  112  A    between atoms: _293  and  _294
REMARK  113  A    between atoms: _293  and  _296
REMARK  114  A    between atoms: _296  and  _297
REMARK                            x       y       z     vdW  Elec       q    Type
REMARK                         _______ _______ _______ _____ _____    ______ ____
ROOT
ATOM      1  O   HOH     1      12.545  12.431  25.114  0.00  0.00    +0.000 OA
ENDROOT
TORSDOF 0
REMARK  Name = ../refined-set-2016/3c39/3c39_pocket.pdb
REMARK  114 active torsions:
REMARK  status: ('A' for Active; 'I' for Inactive)
REMARK    1  A    between atoms: _1  and  _3
REMARK    2  A    between atoms: _3  and  _4
REMARK    3  A    between atoms: _3  and  _6
REMARK    4  A    between atoms: _6  and  _7
REMARK    5  A    between atoms: _7  and  _8
REMARK    6  A    between atoms: _8  and  _9
REMARK    7  A    between atoms: _18  and  _20
REMARK    8  A    between atoms: _20  and  _21
REMARK    9  A    between atoms: _20  and  _23
REMARK   10  A    between atoms: _26  and  _28
REMARK   11  A    between atoms: _28  and  _29
REMARK   12  A    between atoms: _28  and  _31
REMARK   13  A    between atoms: _31  and  _32
REMARK   14  A    between atoms: _35  and  _37
REMARK   15  A    between atoms: _37  and  _38
REMARK   16  A    between atoms: _37  and  _40
REMARK   17  A    between atoms: _40  and  _41
REMARK   18  A    between atoms: _47  and  _49
REMARK   19  A    between atoms: _49  and  _50
REMARK   20  A    between atoms: _49  and  _52
REMARK   21  A    between atoms: _52  and  _53
REMARK   22  A    between atoms: _58  and  _60
REMARK   23  A    between atoms: _60  and  _61
REMARK   24  A    between atoms: _60  and  _63
REMARK   25  A    between atoms: _66  and  _68
REMARK   26  A    between atoms: _68  and  _69
REMARK   27  A    between atoms: _68  and  _71
REMARK   28  A    between atoms: _71  and  _72
REMARK   29  A    between atoms: _72  and  _73
REMARK   30  A    between atoms: _73  and  _74
REMARK   31  A    between atoms: _83  and  _85
REMARK   32  A    between atoms: _85  and  _86
REMARK   33  A    between atoms: _85  and  _88
REMARK   34  A    between atoms: _88  and  _89
REMARK   35  A    between atoms: _91  and  _93
REMARK   36  A    between atoms: _93  and  _94
REMARK   37  A    between atoms: _93  and  _96
REMARK   38  A    between atoms: _96  and  _97
REMARK   39  A    between atoms: _102  and  _104
REMARK   40  A    between atoms: _104  and  _105
REMARK   41  A    between atoms: _104  and  _107
REMARK   42  A    between atoms: _107  and  _108
REMARK   43  A    between atoms: _111  and  _113
REMARK   44  A    between atoms: _113  and  _114
REMARK   45  A    between atoms: _116  and  _118
REMARK   46  A    between atoms: _118  and  _119
REMARK   47  A    between atoms: _118  and  _121
REMARK   48  A    between atoms: _121  and  _122
REMARK   49  A    between atoms: _122  and  _123
REMARK   50  A    between atoms: _123  and  _124
REMARK   51  A    between atoms: _134  and  _135
REMARK   52  A    between atoms: _140  and  _142
REMARK   53  A    between atoms: _142  and  _143
REMARK   54  A    between atoms: _142  and  _145
REMARK   55  A    between atoms: _145  and  _146
REMARK   56  A    between atoms: _149  and  _151
REMARK   57  A    between atoms: _151  and  _152
REMARK   58  A    between atoms: _151  and  _154
REMARK   59  A    between atoms: _154  and  _155
REMARK   60  A    between atoms: _155  and  _156
REMARK   61  A    between atoms: _156  and  _157
REMARK   62  A    between atoms: _166  and  _168
REMARK   63  A    between atoms: _168  and  _169
REMARK   64  A    between atoms: _168  and  _171
REMARK   65  A    between atoms: _171  and  _172
REMARK   66  A    between atoms: _172  and  _173
REMARK   67  A    between atoms: _176  and  _178
REMARK   68  A    between atoms: _178  and  _179
REMARK   69  A    between atoms: _182  and  _184
REMARK   70  A    between atoms: _184  and  _185
REMARK   71  A    between atoms: _184  and  _187
REMARK   72  A    between atoms: _187  and  _188
REMARK   73  A    between atoms: _194  and  _196
REMARK   74  A    between atoms: _196  and  _197
REMARK   75  A    between atoms: _199  and  _201
REMARK   76  A    between atoms: _201  and  _202
REMARK   77  A    between atoms: _201  and  _204
REMARK   78  A    between atoms: _204  and  _205
REMARK   79  A    between atoms: _208  and  _210
REMARK   80  A    between atoms: _210  and  _211
REMARK   81  A    between atoms: _214  and  _216
REMARK   82  A    between atoms: _216  and  _217
REMARK   83  A    between atoms: _216  and  _219
REMARK   84  A    between atoms: _219  and  _220
REMARK   85  A    between atoms: _225  and  _227
REMARK   86  A    between atoms: _227  and  _228
REMARK   87  A    between atoms: _227  and  _230
REMARK   88  A    between atoms: _230  and  _231
REMARK   89  A    between atoms: _231  and  _232
REMARK   90  A    between atoms: _232  and  _233
REMARK   91  A    between atoms: _242  and  _244
REMARK   92  A    between atoms: _244  and  _245
REMARK   93  A    between atoms: _244  and  _247
REMARK   94  A    between atoms: _247  and  _248
REMARK   95  A    between atoms: _253  and  _255
REMARK   96  A    between atoms: _255  and  _256
REMARK   97  A    between atoms: _255  and  _258
REMARK   98  A    between atoms: _258  and  _259
REMARK   99  A    between atoms: _262  and  _264
REMARK  100  A    between atoms: _264  and  _265
REMARK  101  A    between atoms: _267  and  _269
REMARK  102  A    between atoms: _269  and  _270
REMARK  103  A    between atoms: _272  and  _274
REMARK  104  A    between atoms: _274  and  _275
REMARK  105  A    between atoms: _277  and  _279
REMARK  106  A    between atoms: _279  and  _280
REMARK  107  A    between atoms: _283  and  _285
REMARK  108  A    between atoms: _285  and  _286
REMARK  109  A    between atoms: _285  and  _288
REMARK  110  A    between atoms: _288  and  _289
REMARK  111  A    between atoms: _291  and  _293
REMARK  112  A    between atoms: _293  and  _294
REMARK  113  A    between atoms: _293  and  _296
REMARK  114  A    between atoms: _296  and  _297
REMARK                            x       y       z     vdW  Elec       q    Type
REMARK                         _______ _______ _______ _____ _____    ______ ____
ROOT
ATOM      1  O   HOH     1       6.303   4.151  20.887  0.00  0.00    +0.000 OA
ENDROOT
TORSDOF 0
REMARK  Name = ../refined-set-2016/3c39/3c39_pocket.pdb
REMARK  114 active torsions:
REMARK  status: ('A' for Active; 'I' for Inactive)
REMARK    1  A    between atoms: _1  and  _3
REMARK    2  A    between atoms: _3  and  _4
REMARK    3  A    between atoms: _3  and  _6
REMARK    4  A    between atoms: _6  and  _7
REMARK    5  A    between atoms: _7  and  _8
REMARK    6  A    between atoms: _8  and  _9
REMARK    7  A    between atoms: _18  and  _20
REMARK    8  A    between atoms: _20  and  _21
REMARK    9  A    between atoms: _20  and  _23
REMARK   10  A    between atoms: _26  and  _28
REMARK   11  A    between atoms: _28  and  _29
REMARK   12  A    between atoms: _28  and  _31
REMARK   13  A    between atoms: _31  and  _32
REMARK   14  A    between atoms: _35  and  _37
REMARK   15  A    between atoms: _37  and  _38
REMARK   16  A    between atoms: _37  and  _40
REMARK   17  A    between atoms: _40  and  _41
REMARK   18  A    between atoms: _47  and  _49
REMARK   19  A    between atoms: _49  and  _50
REMARK   20  A    between atoms: _49  and  _52
REMARK   21  A    between atoms: _52  and  _53
REMARK   22  A    between atoms: _58  and  _60
REMARK   23  A    between atoms: _60  and  _61
REMARK   24  A    between atoms: _60  and  _63
REMARK   25  A    between atoms: _66  and  _68
REMARK   26  A    between atoms: _68  and  _69
REMARK   27  A    between atoms: _68  and  _71
REMARK   28  A    between atoms: _71  and  _72
REMARK   29  A    between atoms: _72  and  _73
REMARK   30  A    between atoms: _73  and  _74
REMARK   31  A    between atoms: _83  and  _85
REMARK   32  A    between atoms: _85  and  _86
REMARK   33  A    between atoms: _85  and  _88
REMARK   34  A    between atoms: _88  and  _89
REMARK   35  A    between atoms: _91  and  _93
REMARK   36  A    between atoms: _93  and  _94
REMARK   37  A    between atoms: _93  and  _96
REMARK   38  A    between atoms: _96  and  _97
REMARK   39  A    between atoms: _102  and  _104
REMARK   40  A    between atoms: _104  and  _105
REMARK   41  A    between atoms: _104  and  _107
REMARK   42  A    between atoms: _107  and  _108
REMARK   43  A    between atoms: _111  and  _113
REMARK   44  A    between atoms: _113  and  _114
REMARK   45  A    between atoms: _116  and  _118
REMARK   46  A    between atoms: _118  and  _119
REMARK   47  A    between atoms: _118  and  _121
REMARK   48  A    between atoms: _121  and  _122
REMARK   49  A    between atoms: _122  and  _123
REMARK   50  A    between atoms: _123  and  _124
REMARK   51  A    between atoms: _134  and  _135
REMARK   52  A    between atoms: _140  and  _142
REMARK   53  A    between atoms: _142  and  _143
REMARK   54  A    between atoms: _142  and  _145
REMARK   55  A    between atoms: _145  and  _146
REMARK   56  A    between atoms: _149  and  _151
REMARK   57  A    between atoms: _151  and  _152
REMARK   58  A    between atoms: _151  and  _154
REMARK   59  A    between atoms: _154  and  _155
REMARK   60  A    between atoms: _155  and  _156
REMARK   61  A    between atoms: _156  and  _157
REMARK   62  A    between atoms: _166  and  _168
REMARK   63  A    between atoms: _168  and  _169
REMARK   64  A    between atoms: _168  and  _171
REMARK   65  A    between atoms: _171  and  _172
REMARK   66  A    between atoms: _172  and  _173
REMARK   67  A    between atoms: _176  and  _178
REMARK   68  A    between atoms: _178  and  _179
REMARK   69  A    between atoms: _182  and  _184
REMARK   70  A    between atoms: _184  and  _185
REMARK   71  A    between atoms: _184  and  _187
REMARK   72  A    between atoms: _187  and  _188
REMARK   73  A    between atoms: _194  and  _196
REMARK   74  A    between atoms: _196  and  _197
REMARK   75  A    between atoms: _199  and  _201
REMARK   76  A    between atoms: _201  and  _202
REMARK   77  A    between atoms: _201  and  _204
REMARK   78  A    between atoms: _204  and  _205
REMARK   79  A    between atoms: _208  and  _210
REMARK   80  A    between atoms: _210  and  _211
REMARK   81  A    between atoms: _214  and  _216
REMARK   82  A    between atoms: _216  and  _217
REMARK   83  A    between atoms: _216  and  _219
REMARK   84  A    between atoms: _219  and  _220
REMARK   85  A    between atoms: _225  and  _227
REMARK   86  A    between atoms: _227  and  _228
REMARK   87  A    between atoms: _227  and  _230
REMARK   88  A    between atoms: _230  and  _231
REMARK   89  A    between atoms: _231  and  _232
REMARK   90  A    between atoms: _232  and  _233
REMARK   91  A    between atoms: _242  and  _244
REMARK   92  A    between atoms: _244  and  _245
REMARK   93  A    between atoms: _244  and  _247
REMARK   94  A    between atoms: _247  and  _248
REMARK   95  A    between atoms: _253  and  _255
REMARK   96  A    between atoms: _255  and  _256
REMARK   97  A    between atoms: _255  and  _258
REMARK   98  A    between atoms: _258  and  _259
REMARK   99  A    between atoms: _262  and  _264
REMARK  100  A    between atoms: _264  and  _265
REMARK  101  A    between atoms: _267  and  _269
REMARK  102  A    between atoms: _269  and  _270
REMARK  103  A    between atoms: _272  and  _274
REMARK  104  A    between atoms: _274  and  _275
REMARK  105  A    between atoms: _277  and  _279
REMARK  106  A    between atoms: _279  and  _280
REMARK  107  A    between atoms: _283  and  _285
REMARK  108  A    between atoms: _285  and  _286
REMARK  109  A    between atoms: _285  and  _288
REMARK  110  A    between atoms: _288  and  _289
REMARK  111  A    between atoms: _291  and  _293
REMARK  112  A    between atoms: _293  and  _294
REMARK  113  A    between atoms: _293  and  _296
REMARK  114  A    between atoms: _296  and  _297
REMARK                            x       y       z     vdW  Elec       q    Type
REMARK                         _______ _______ _______ _____ _____    ______ ____
ROOT
ATOM      1  O   HOH     1       1.185   6.934  28.687  0.00  0.00    +0.000 OA
ENDROOT
TORSDOF 0
REMARK  Name = ../refined-set-2016/3c39/3c39_pocket.pdb
REMARK  114 active torsions:
REMARK  status: ('A' for Active; 'I' for Inactive)
REMARK    1  A    between atoms: _1  and  _3
REMARK    2  A    between atoms: _3  and  _4
REMARK    3  A    between atoms: _3  and  _6
REMARK    4  A    between atoms: _6  and  _7
REMARK    5  A    between atoms: _7  and  _8
REMARK    6  A    between atoms: _8  and  _9
REMARK    7  A    between atoms: _18  and  _20
REMARK    8  A    between atoms: _20  and  _21
REMARK    9  A    between atoms: _20  and  _23
REMARK   10  A    between atoms: _26  and  _28
REMARK   11  A    between atoms: _28  and  _29
REMARK   12  A    between atoms: _28  and  _31
REMARK   13  A    between atoms: _31  and  _32
REMARK   14  A    between atoms: _35  and  _37
REMARK   15  A    between atoms: _37  and  _38
REMARK   16  A    between atoms: _37  and  _40
REMARK   17  A    between atoms: _40  and  _41
REMARK   18  A    between atoms: _47  and  _49
REMARK   19  A    between atoms: _49  and  _50
REMARK   20  A    between atoms: _49  and  _52
REMARK   21  A    between atoms: _52  and  _53
REMARK   22  A    between atoms: _58  and  _60
REMARK   23  A    between atoms: _60  and  _61
REMARK   24  A    between atoms: _60  and  _63
REMARK   25  A    between atoms: _66  and  _68
REMARK   26  A    between atoms: _68  and  _69
REMARK   27  A    between atoms: _68  and  _71
REMARK   28  A    between atoms: _71  and  _72
REMARK   29  A    between atoms: _72  and  _73
REMARK   30  A    between atoms: _73  and  _74
REMARK   31  A    between atoms: _83  and  _85
REMARK   32  A    between atoms: _85  and  _86
REMARK   33  A    between atoms: _85  and  _88
REMARK   34  A    between atoms: _88  and  _89
REMARK   35  A    between atoms: _91  and  _93
REMARK   36  A    between atoms: _93  and  _94
REMARK   37  A    between atoms: _93  and  _96
REMARK   38  A    between atoms: _96  and  _97
REMARK   39  A    between atoms: _102  and  _104
REMARK   40  A    between atoms: _104  and  _105
REMARK   41  A    between atoms: _104  and  _107
REMARK   42  A    between atoms: _107  and  _108
REMARK   43  A    between atoms: _111  and  _113
REMARK   44  A    between atoms: _113  and  _114
REMARK   45  A    between atoms: _116  and  _118
REMARK   46  A    between atoms: _118  and  _119
REMARK   47  A    between atoms: _118  and  _121
REMARK   48  A    between atoms: _121  and  _122
REMARK   49  A    between atoms: _122  and  _123
REMARK   50  A    between atoms: _123  and  _124
REMARK   51  A    between atoms: _134  and  _135
REMARK   52  A    between atoms: _140  and  _142
REMARK   53  A    between atoms: _142  and  _143
REMARK   54  A    between atoms: _142  and  _145
REMARK   55  A    between atoms: _145  and  _146
REMARK   56  A    between atoms: _149  and  _151
REMARK   57  A    between atoms: _151  and  _152
REMARK   58  A    between atoms: _151  and  _154
REMARK   59  A    between atoms: _154  and  _155
REMARK   60  A    between atoms: _155  and  _156
REMARK   61  A    between atoms: _156  and  _157
REMARK   62  A    between atoms: _166  and  _168
REMARK   63  A    between atoms: _168  and  _169
REMARK   64  A    between atoms: _168  and  _171
REMARK   65  A    between atoms: _171  and  _172
REMARK   66  A    between atoms: _172  and  _173
REMARK   67  A    between atoms: _176  and  _178
REMARK   68  A    between atoms: _178  and  _179
REMARK   69  A    between atoms: _182  and  _184
REMARK   70  A    between atoms: _184  and  _185
REMARK   71  A    between atoms: _184  and  _187
REMARK   72  A    between atoms: _187  and  _188
REMARK   73  A    between atoms: _194  and  _196
REMARK   74  A    between atoms: _196  and  _197
REMARK   75  A    between atoms: _199  and  _201
REMARK   76  A    between atoms: _201  and  _202
REMARK   77  A    between atoms: _201  and  _204
REMARK   78  A    between atoms: _204  and  _205
REMARK   79  A    between atoms: _208  and  _210
REMARK   80  A    between atoms: _210  and  _211
REMARK   81  A    between atoms: _214  and  _216
REMARK   82  A    between atoms: _216  and  _217
REMARK   83  A    between atoms: _216  and  _219
REMARK   84  A    between atoms: _219  and  _220
REMARK   85  A    between atoms: _225  and  _227
REMARK   86  A    between atoms: _227  and  _228
REMARK   87  A    between atoms: _227  and  _230
REMARK   88  A    between atoms: _230  and  _231
REMARK   89  A    between atoms: _231  and  _232
REMARK   90  A    between atoms: _232  and  _233
REMARK   91  A    between atoms: _242  and  _244
REMARK   92  A    between atoms: _244  and  _245
REMARK   93  A    between atoms: _244  and  _247
REMARK   94  A    between atoms: _247  and  _248
REMARK   95  A    between atoms: _253  and  _255
REMARK   96  A    between atoms: _255  and  _256
REMARK   97  A    between atoms: _255  and  _258
REMARK   98  A    between atoms: _258  and  _259
REMARK   99  A    between atoms: _262  and  _264
REMARK  100  A    between atoms: _264  and  _265
REMARK  101  A    between atoms: _267  and  _269
REMARK  102  A    between atoms: _269  and  _270
REMARK  103  A    between atoms: _272  and  _274
REMARK  104  A    between atoms: _274  and  _275
REMARK  105  A    between atoms: _277  and  _279
REMARK  106  A    between atoms: _279  and  _280
REMARK  107  A    between atoms: _283  and  _285
REMARK  108  A    between atoms: _285  and  _286
REMARK  109  A    between atoms: _285  and  _288
REMARK  110  A    between atoms: _288  and  _289
REMARK  111  A    between atoms: _291  and  _293
REMARK  112  A    between atoms: _293  and  _294
REMARK  113  A    between atoms: _293  and  _296
REMARK  114  A    between atoms: _296  and  _297
REMARK                            x       y       z     vdW  Elec       q    Type
REMARK                         _______ _______ _______ _____ _____    ______ ____
ROOT
ATOM      1  O   HOH     1      -3.155   6.959  22.894  0.00  0.00    +0.000 OA
ENDROOT
TORSDOF 0
REMARK  Name = ../refined-set-2016/3c39/3c39_pocket.pdb
REMARK  114 active torsions:
REMARK  status: ('A' for Active; 'I' for Inactive)
REMARK    1  A    between atoms: _1  and  _3
REMARK    2  A    between atoms: _3  and  _4
REMARK    3  A    between atoms: _3  and  _6
REMARK    4  A    between atoms: _6  and  _7
REMARK    5  A    between atoms: _7  and  _8
REMARK    6  A    between atoms: _8  and  _9
REMARK    7  A    between atoms: _18  and  _20
REMARK    8  A    between atoms: _20  and  _21
REMARK    9  A    between atoms: _20  and  _23
REMARK   10  A    between atoms: _26  and  _28
REMARK   11  A    between atoms: _28  and  _29
REMARK   12  A    between atoms: _28  and  _31
REMARK   13  A    between atoms: _31  and  _32
REMARK   14  A    between atoms: _35  and  _37
REMARK   15  A    between atoms: _37  and  _38
REMARK   16  A    between atoms: _37  and  _40
REMARK   17  A    between atoms: _40  and  _41
REMARK   18  A    between atoms: _47  and  _49
REMARK   19  A    between atoms: _49  and  _50
REMARK   20  A    between atoms: _49  and  _52
REMARK   21  A    between atoms: _52  and  _53
REMARK   22  A    between atoms: _58  and  _60
REMARK   23  A    between atoms: _60  and  _61
REMARK   24  A    between atoms: _60  and  _63
REMARK   25  A    between atoms: _66  and  _68
REMARK   26  A    between atoms: _68  and  _69
REMARK   27  A    between atoms: _68  and  _71
REMARK   28  A    between atoms: _71  and  _72
REMARK   29  A    between atoms: _72  and  _73
REMARK   30  A    between atoms: _73  and  _74
REMARK   31  A    between atoms: _83  and  _85
REMARK   32  A    between atoms: _85  and  _86
REMARK   33  A    between atoms: _85  and  _88
REMARK   34  A    between atoms: _88  and  _89
REMARK   35  A    between atoms: _91  and  _93
REMARK   36  A    between atoms: _93  and  _94
REMARK   37  A    between atoms: _93  and  _96
REMARK   38  A    between atoms: _96  and  _97
REMARK   39  A    between atoms: _102  and  _104
REMARK   40  A    between atoms: _104  and  _105
REMARK   41  A    between atoms: _104  and  _107
REMARK   42  A    between atoms: _107  and  _108
REMARK   43  A    between atoms: _111  and  _113
REMARK   44  A    between atoms: _113  and  _114
REMARK   45  A    between atoms: _116  and  _118
REMARK   46  A    between atoms: _118  and  _119
REMARK   47  A    between atoms: _118  and  _121
REMARK   48  A    between atoms: _121  and  _122
REMARK   49  A    between atoms: _122  and  _123
REMARK   50  A    between atoms: _123  and  _124
REMARK   51  A    between atoms: _134  and  _135
REMARK   52  A    between atoms: _140  and  _142
REMARK   53  A    between atoms: _142  and  _143
REMARK   54  A    between atoms: _142  and  _145
REMARK   55  A    between atoms: _145  and  _146
REMARK   56  A    between atoms: _149  and  _151
REMARK   57  A    between atoms: _151  and  _152
REMARK   58  A    between atoms: _151  and  _154
REMARK   59  A    between atoms: _154  and  _155
REMARK   60  A    between atoms: _155  and  _156
REMARK   61  A    between atoms: _156  and  _157
REMARK   62  A    between atoms: _166  and  _168
REMARK   63  A    between atoms: _168  and  _169
REMARK   64  A    between atoms: _168  and  _171
REMARK   65  A    between atoms: _171  and  _172
REMARK   66  A    between atoms: _172  and  _173
REMARK   67  A    between atoms: _176  and  _178
REMARK   68  A    between atoms: _178  and  _179
REMARK   69  A    between atoms: _182  and  _184
REMARK   70  A    between atoms: _184  and  _185
REMARK   71  A    between atoms: _184  and  _187
REMARK   72  A    between atoms: _187  and  _188
REMARK   73  A    between atoms: _194  and  _196
REMARK   74  A    between atoms: _196  and  _197
REMARK   75  A    between atoms: _199  and  _201
REMARK   76  A    between atoms: _201  and  _202
REMARK   77  A    between atoms: _201  and  _204
REMARK   78  A    between atoms: _204  and  _205
REMARK   79  A    between atoms: _208  and  _210
REMARK   80  A    between atoms: _210  and  _211
REMARK   81  A    between atoms: _214  and  _216
REMARK   82  A    between atoms: _216  and  _217
REMARK   83  A    between atoms: _216  and  _219
REMARK   84  A    between atoms: _219  and  _220
REMARK   85  A    between atoms: _225  and  _227
REMARK   86  A    between atoms: _227  and  _228
REMARK   87  A    between atoms: _227  and  _230
REMARK   88  A    between atoms: _230  and  _231
REMARK   89  A    between atoms: _231  and  _232
REMARK   90  A    between atoms: _232  and  _233
REMARK   91  A    between atoms: _242  and  _244
REMARK   92  A    between atoms: _244  and  _245
REMARK   93  A    between atoms: _244  and  _247
REMARK   94  A    between atoms: _247  and  _248
REMARK   95  A    between atoms: _253  and  _255
REMARK   96  A    between atoms: _255  and  _256
REMARK   97  A    between atoms: _255  and  _258
REMARK   98  A    between atoms: _258  and  _259
REMARK   99  A    between atoms: _262  and  _264
REMARK  100  A    between atoms: _264  and  _265
REMARK  101  A    between atoms: _267  and  _269
REMARK  102  A    between atoms: _269  and  _270
REMARK  103  A    between atoms: _272  and  _274
REMARK  104  A    between atoms: _274  and  _275
REMARK  105  A    between atoms: _277  and  _279
REMARK  106  A    between atoms: _279  and  _280
REMARK  107  A    between atoms: _283  and  _285
REMARK  108  A    between atoms: _285  and  _286
REMARK  109  A    between atoms: _285  and  _288
REMARK  110  A    between atoms: _288  and  _289
REMARK  111  A    between atoms: _291  and  _293
REMARK  112  A    between atoms: _293  and  _294
REMARK  113  A    between atoms: _293  and  _296
REMARK  114  A    between atoms: _296  and  _297
REMARK                            x       y       z     vdW  Elec       q    Type
REMARK                         _______ _______ _______ _____ _____    ______ ____
ROOT
ATOM      1  O   HOH     1       9.156   8.228  25.518  0.00  0.00    +0.000 OA
ENDROOT
TORSDOF 0
REMARK  Name = ../refined-set-2016/3c39/3c39_pocket.pdb
REMARK  114 active torsions:
REMARK  status: ('A' for Active; 'I' for Inactive)
REMARK    1  A    between atoms: _1  and  _3
REMARK    2  A    between atoms: _3  and  _4
REMARK    3  A    between atoms: _3  and  _6
REMARK    4  A    between atoms: _6  and  _7
REMARK    5  A    between atoms: _7  and  _8
REMARK    6  A    between atoms: _8  and  _9
REMARK    7  A    between atoms: _18  and  _20
REMARK    8  A    between atoms: _20  and  _21
REMARK    9  A    between atoms: _20  and  _23
REMARK   10  A    between atoms: _26  and  _28
REMARK   11  A    between atoms: _28  and  _29
REMARK   12  A    between atoms: _28  and  _31
REMARK   13  A    between atoms: _31  and  _32
REMARK   14  A    between atoms: _35  and  _37
REMARK   15  A    between atoms: _37  and  _38
REMARK   16  A    between atoms: _37  and  _40
REMARK   17  A    between atoms: _40  and  _41
REMARK   18  A    between atoms: _47  and  _49
REMARK   19  A    between atoms: _49  and  _50
REMARK   20  A    between atoms: _49  and  _52
REMARK   21  A    between atoms: _52  and  _53
REMARK   22  A    between atoms: _58  and  _60
REMARK   23  A    between atoms: _60  and  _61
REMARK   24  A    between atoms: _60  and  _63
REMARK   25  A    between atoms: _66  and  _68
REMARK   26  A    between atoms: _68  and  _69
REMARK   27  A    between atoms: _68  and  _71
REMARK   28  A    between atoms: _71  and  _72
REMARK   29  A    between atoms: _72  and  _73
REMARK   30  A    between atoms: _73  and  _74
REMARK   31  A    between atoms: _83  and  _85
REMARK   32  A    between atoms: _85  and  _86
REMARK   33  A    between atoms: _85  and  _88
REMARK   34  A    between atoms: _88  and  _89
REMARK   35  A    between atoms: _91  and  _93
REMARK   36  A    between atoms: _93  and  _94
REMARK   37  A    between atoms: _93  and  _96
REMARK   38  A    between atoms: _96  and  _97
REMARK   39  A    between atoms: _102  and  _104
REMARK   40  A    between atoms: _104  and  _105
REMARK   41  A    between atoms: _104  and  _107
REMARK   42  A    between atoms: _107  and  _108
REMARK   43  A    between atoms: _111  and  _113
REMARK   44  A    between atoms: _113  and  _114
REMARK   45  A    between atoms: _116  and  _118
REMARK   46  A    between atoms: _118  and  _119
REMARK   47  A    between atoms: _118  and  _121
REMARK   48  A    between atoms: _121  and  _122
REMARK   49  A    between atoms: _122  and  _123
REMARK   50  A    between atoms: _123  and  _124
REMARK   51  A    between atoms: _134  and  _135
REMARK   52  A    between atoms: _140  and  _142
REMARK   53  A    between atoms: _142  and  _143
REMARK   54  A    between atoms: _142  and  _145
REMARK   55  A    between atoms: _145  and  _146
REMARK   56  A    between atoms: _149  and  _151
REMARK   57  A    between atoms: _151  and  _152
REMARK   58  A    between atoms: _151  and  _154
REMARK   59  A    between atoms: _154  and  _155
REMARK   60  A    between atoms: _155  and  _156
REMARK   61  A    between atoms: _156  and  _157
REMARK   62  A    between atoms: _166  and  _168
REMARK   63  A    between atoms: _168  and  _169
REMARK   64  A    between atoms: _168  and  _171
REMARK   65  A    between atoms: _171  and  _172
REMARK   66  A    between atoms: _172  and  _173
REMARK   67  A    between atoms: _176  and  _178
REMARK   68  A    between atoms: _178  and  _179
REMARK   69  A    between atoms: _182  and  _184
REMARK   70  A    between atoms: _184  and  _185
REMARK   71  A    between atoms: _184  and  _187
REMARK   72  A    between atoms: _187  and  _188
REMARK   73  A    between atoms: _194  and  _196
REMARK   74  A    between atoms: _196  and  _197
REMARK   75  A    between atoms: _199  and  _201
REMARK   76  A    between atoms: _201  and  _202
REMARK   77  A    between atoms: _201  and  _204
REMARK   78  A    between atoms: _204  and  _205
REMARK   79  A    between atoms: _208  and  _210
REMARK   80  A    between atoms: _210  and  _211
REMARK   81  A    between atoms: _214  and  _216
REMARK   82  A    between atoms: _216  and  _217
REMARK   83  A    between atoms: _216  and  _219
REMARK   84  A    between atoms: _219  and  _220
REMARK   85  A    between atoms: _225  and  _227
REMARK   86  A    between atoms: _227  and  _228
REMARK   87  A    between atoms: _227  and  _230
REMARK   88  A    between atoms: _230  and  _231
REMARK   89  A    between atoms: _231  and  _232
REMARK   90  A    between atoms: _232  and  _233
REMARK   91  A    between atoms: _242  and  _244
REMARK   92  A    between atoms: _244  and  _245
REMARK   93  A    between atoms: _244  and  _247
REMARK   94  A    between atoms: _247  and  _248
REMARK   95  A    between atoms: _253  and  _255
REMARK   96  A    between atoms: _255  and  _256
REMARK   97  A    between atoms: _255  and  _258
REMARK   98  A    between atoms: _258  and  _259
REMARK   99  A    between atoms: _262  and  _264
REMARK  100  A    between atoms: _264  and  _265
REMARK  101  A    between atoms: _267  and  _269
REMARK  102  A    between atoms: _269  and  _270
REMARK  103  A    between atoms: _272  and  _274
REMARK  104  A    between atoms: _274  and  _275
REMARK  105  A    between atoms: _277  and  _279
REMARK  106  A    between atoms: _279  and  _280
REMARK  107  A    between atoms: _283  and  _285
REMARK  108  A    between atoms: _285  and  _286
REMARK  109  A    between atoms: _285  and  _288
REMARK  110  A    between atoms: _288  and  _289
REMARK  111  A    between atoms: _291  and  _293
REMARK  112  A    between atoms: _293  and  _294
REMARK  113  A    between atoms: _293  and  _296
REMARK  114  A    between atoms: _296  and  _297
REMARK                            x       y       z     vdW  Elec       q    Type
REMARK                         _______ _______ _______ _____ _____    ______ ____
ROOT
ATOM      1  O   HOH     1      12.493   8.846  24.500  0.00  0.00    +0.000 OA
ENDROOT
TORSDOF 0
REMARK  Name = ../refined-set-2016/3c39/3c39_pocket.pdb
REMARK  114 active torsions:
REMARK  status: ('A' for Active; 'I' for Inactive)
REMARK    1  A    between atoms: _1  and  _3
REMARK    2  A    between atoms: _3  and  _4
REMARK    3  A    between atoms: _3  and  _6
REMARK    4  A    between atoms: _6  and  _7
REMARK    5  A    between atoms: _7  and  _8
REMARK    6  A    between atoms: _8  and  _9
REMARK    7  A    between atoms: _18  and  _20
REMARK    8  A    between atoms: _20  and  _21
REMARK    9  A    between atoms: _20  and  _23
REMARK   10  A    between atoms: _26  and  _28
REMARK   11  A    between atoms: _28  and  _29
REMARK   12  A    between atoms: _28  and  _31
REMARK   13  A    between atoms: _31  and  _32
REMARK   14  A    between atoms: _35  and  _37
REMARK   15  A    between atoms: _37  and  _38
REMARK   16  A    between atoms: _37  and  _40
REMARK   17  A    between atoms: _40  and  _41
REMARK   18  A    between atoms: _47  and  _49
REMARK   19  A    between atoms: _49  and  _50
REMARK   20  A    between atoms: _49  and  _52
REMARK   21  A    between atoms: _52  and  _53
REMARK   22  A    between atoms: _58  and  _60
REMARK   23  A    between atoms: _60  and  _61
REMARK   24  A    between atoms: _60  and  _63
REMARK   25  A    between atoms: _66  and  _68
REMARK   26  A    between atoms: _68  and  _69
REMARK   27  A    between atoms: _68  and  _71
REMARK   28  A    between atoms: _71  and  _72
REMARK   29  A    between atoms: _72  and  _73
REMARK   30  A    between atoms: _73  and  _74
REMARK   31  A    between atoms: _83  and  _85
REMARK   32  A    between atoms: _85  and  _86
REMARK   33  A    between atoms: _85  and  _88
REMARK   34  A    between atoms: _88  and  _89
REMARK   35  A    between atoms: _91  and  _93
REMARK   36  A    between atoms: _93  and  _94
REMARK   37  A    between atoms: _93  and  _96
REMARK   38  A    between atoms: _96  and  _97
REMARK   39  A    between atoms: _102  and  _104
REMARK   40  A    between atoms: _104  and  _105
REMARK   41  A    between atoms: _104  and  _107
REMARK   42  A    between atoms: _107  and  _108
REMARK   43  A    between atoms: _111  and  _113
REMARK   44  A    between atoms: _113  and  _114
REMARK   45  A    between atoms: _116  and  _118
REMARK   46  A    between atoms: _118  and  _119
REMARK   47  A    between atoms: _118  and  _121
REMARK   48  A    between atoms: _121  and  _122
REMARK   49  A    between atoms: _122  and  _123
REMARK   50  A    between atoms: _123  and  _124
REMARK   51  A    between atoms: _134  and  _135
REMARK   52  A    between atoms: _140  and  _142
REMARK   53  A    between atoms: _142  and  _143
REMARK   54  A    between atoms: _142  and  _145
REMARK   55  A    between atoms: _145  and  _146
REMARK   56  A    between atoms: _149  and  _151
REMARK   57  A    between atoms: _151  and  _152
REMARK   58  A    between atoms: _151  and  _154
REMARK   59  A    between atoms: _154  and  _155
REMARK   60  A    between atoms: _155  and  _156
REMARK   61  A    between atoms: _156  and  _157
REMARK   62  A    between atoms: _166  and  _168
REMARK   63  A    between atoms: _168  and  _169
REMARK   64  A    between atoms: _168  and  _171
REMARK   65  A    between atoms: _171  and  _172
REMARK   66  A    between atoms: _172  and  _173
REMARK   67  A    between atoms: _176  and  _178
REMARK   68  A    between atoms: _178  and  _179
REMARK   69  A    between atoms: _182  and  _184
REMARK   70  A    between atoms: _184  and  _185
REMARK   71  A    between atoms: _184  and  _187
REMARK   72  A    between atoms: _187  and  _188
REMARK   73  A    between atoms: _194  and  _196
REMARK   74  A    between atoms: _196  and  _197
REMARK   75  A    between atoms: _199  and  _201
REMARK   76  A    between atoms: _201  and  _202
REMARK   77  A    between atoms: _201  and  _204
REMARK   78  A    between atoms: _204  and  _205
REMARK   79  A    between atoms: _208  and  _210
REMARK   80  A    between atoms: _210  and  _211
REMARK   81  A    between atoms: _214  and  _216
REMARK   82  A    between atoms: _216  and  _217
REMARK   83  A    between atoms: _216  and  _219
REMARK   84  A    between atoms: _219  and  _220
REMARK   85  A    between atoms: _225  and  _227
REMARK   86  A    between atoms: _227  and  _228
REMARK   87  A    between atoms: _227  and  _230
REMARK   88  A    between atoms: _230  and  _231
REMARK   89  A    between atoms: _231  and  _232
REMARK   90  A    between atoms: _232  and  _233
REMARK   91  A    between atoms: _242  and  _244
REMARK   92  A    between atoms: _244  and  _245
REMARK   93  A    between atoms: _244  and  _247
REMARK   94  A    between atoms: _247  and  _248
REMARK   95  A    between atoms: _253  and  _255
REMARK   96  A    between atoms: _255  and  _256
REMARK   97  A    between atoms: _255  and  _258
REMARK   98  A    between atoms: _258  and  _259
REMARK   99  A    between atoms: _262  and  _264
REMARK  100  A    between atoms: _264  and  _265
REMARK  101  A    between atoms: _267  and  _269
REMARK  102  A    between atoms: _269  and  _270
REMARK  103  A    between atoms: _272  and  _274
REMARK  104  A    between atoms: _274  and  _275
REMARK  105  A    between atoms: _277  and  _279
REMARK  106  A    between atoms: _279  and  _280
REMARK  107  A    between atoms: _283  and  _285
REMARK  108  A    between atoms: _285  and  _286
REMARK  109  A    between atoms: _285  and  _288
REMARK  110  A    between atoms: _288  and  _289
REMARK  111  A    between atoms: _291  and  _293
REMARK  112  A    between atoms: _293  and  _294
REMARK  113  A    between atoms: _293  and  _296
REMARK  114  A    between atoms: _296  and  _297
REMARK                            x       y       z     vdW  Elec       q    Type
REMARK                         _______ _______ _______ _____ _____    ______ ____
ROOT
ATOM      1  O   HOH     1       6.431   7.373  26.717  0.00  0.00    +0.000 OA
ENDROOT
TORSDOF 0
REMARK  Name = ../refined-set-2016/3c39/3c39_pocket.pdb
REMARK  114 active torsions:
REMARK  status: ('A' for Active; 'I' for Inactive)
REMARK    1  A    between atoms: _1  and  _3
REMARK    2  A    between atoms: _3  and  _4
REMARK    3  A    between atoms: _3  and  _6
REMARK    4  A    between atoms: _6  and  _7
REMARK    5  A    between atoms: _7  and  _8
REMARK    6  A    between atoms: _8  and  _9
REMARK    7  A    between atoms: _18  and  _20
REMARK    8  A    between atoms: _20  and  _21
REMARK    9  A    between atoms: _20  and  _23
REMARK   10  A    between atoms: _26  and  _28
REMARK   11  A    between atoms: _28  and  _29
REMARK   12  A    between atoms: _28  and  _31
REMARK   13  A    between atoms: _31  and  _32
REMARK   14  A    between atoms: _35  and  _37
REMARK   15  A    between atoms: _37  and  _38
REMARK   16  A    between atoms: _37  and  _40
REMARK   17  A    between atoms: _40  and  _41
REMARK   18  A    between atoms: _47  and  _49
REMARK   19  A    between atoms: _49  and  _50
REMARK   20  A    between atoms: _49  and  _52
REMARK   21  A    between atoms: _52  and  _53
REMARK   22  A    between atoms: _58  and  _60
REMARK   23  A    between atoms: _60  and  _61
REMARK   24  A    between atoms: _60  and  _63
REMARK   25  A    between atoms: _66  and  _68
REMARK   26  A    between atoms: _68  and  _69
REMARK   27  A    between atoms: _68  and  _71
REMARK   28  A    between atoms: _71  and  _72
REMARK   29  A    between atoms: _72  and  _73
REMARK   30  A    between atoms: _73  and  _74
REMARK   31  A    between atoms: _83  and  _85
REMARK   32  A    between atoms: _85  and  _86
REMARK   33  A    between atoms: _85  and  _88
REMARK   34  A    between atoms: _88  and  _89
REMARK   35  A    between atoms: _91  and  _93
REMARK   36  A    between atoms: _93  and  _94
REMARK   37  A    between atoms: _93  and  _96
REMARK   38  A    between atoms: _96  and  _97
REMARK   39  A    between atoms: _102  and  _104
REMARK   40  A    between atoms: _104  and  _105
REMARK   41  A    between atoms: _104  and  _107
REMARK   42  A    between atoms: _107  and  _108
REMARK   43  A    between atoms: _111  and  _113
REMARK   44  A    between atoms: _113  and  _114
REMARK   45  A    between atoms: _116  and  _118
REMARK   46  A    between atoms: _118  and  _119
REMARK   47  A    between atoms: _118  and  _121
REMARK   48  A    between atoms: _121  and  _122
REMARK   49  A    between atoms: _122  and  _123
REMARK   50  A    between atoms: _123  and  _124
REMARK   51  A    between atoms: _134  and  _135
REMARK   52  A    between atoms: _140  and  _142
REMARK   53  A    between atoms: _142  and  _143
REMARK   54  A    between atoms: _142  and  _145
REMARK   55  A    between atoms: _145  and  _146
REMARK   56  A    between atoms: _149  and  _151
REMARK   57  A    between atoms: _151  and  _152
REMARK   58  A    between atoms: _151  and  _154
REMARK   59  A    between atoms: _154  and  _155
REMARK   60  A    between atoms: _155  and  _156
REMARK   61  A    between atoms: _156  and  _157
REMARK   62  A    between atoms: _166  and  _168
REMARK   63  A    between atoms: _168  and  _169
REMARK   64  A    between atoms: _168  and  _171
REMARK   65  A    between atoms: _171  and  _172
REMARK   66  A    between atoms: _172  and  _173
REMARK   67  A    between atoms: _176  and  _178
REMARK   68  A    between atoms: _178  and  _179
REMARK   69  A    between atoms: _182  and  _184
REMARK   70  A    between atoms: _184  and  _185
REMARK   71  A    between atoms: _184  and  _187
REMARK   72  A    between atoms: _187  and  _188
REMARK   73  A    between atoms: _194  and  _196
REMARK   74  A    between atoms: _196  and  _197
REMARK   75  A    between atoms: _199  and  _201
REMARK   76  A    between atoms: _201  and  _202
REMARK   77  A    between atoms: _201  and  _204
REMARK   78  A    between atoms: _204  and  _205
REMARK   79  A    between atoms: _208  and  _210
REMARK   80  A    between atoms: _210  and  _211
REMARK   81  A    between atoms: _214  and  _216
REMARK   82  A    between atoms: _216  and  _217
REMARK   83  A    between atoms: _216  and  _219
REMARK   84  A    between atoms: _219  and  _220
REMARK   85  A    between atoms: _225  and  _227
REMARK   86  A    between atoms: _227  and  _228
REMARK   87  A    between atoms: _227  and  _230
REMARK   88  A    between atoms: _230  and  _231
REMARK   89  A    between atoms: _231  and  _232
REMARK   90  A    between atoms: _232  and  _233
REMARK   91  A    between atoms: _242  and  _244
REMARK   92  A    between atoms: _244  and  _245
REMARK   93  A    between atoms: _244  and  _247
REMARK   94  A    between atoms: _247  and  _248
REMARK   95  A    between atoms: _253  and  _255
REMARK   96  A    between atoms: _255  and  _256
REMARK   97  A    between atoms: _255  and  _258
REMARK   98  A    between atoms: _258  and  _259
REMARK   99  A    between atoms: _262  and  _264
REMARK  100  A    between atoms: _264  and  _265
REMARK  101  A    between atoms: _267  and  _269
REMARK  102  A    between atoms: _269  and  _270
REMARK  103  A    between atoms: _272  and  _274
REMARK  104  A    between atoms: _274  and  _275
REMARK  105  A    between atoms: _277  and  _279
REMARK  106  A    between atoms: _279  and  _280
REMARK  107  A    between atoms: _283  and  _285
REMARK  108  A    between atoms: _285  and  _286
REMARK  109  A    between atoms: _285  and  _288
REMARK  110  A    between atoms: _288  and  _289
REMARK  111  A    between atoms: _291  and  _293
REMARK  112  A    between atoms: _293  and  _294
REMARK  113  A    between atoms: _293  and  _296
REMARK  114  A    between atoms: _296  and  _297
REMARK                            x       y       z     vdW  Elec       q    Type
REMARK                         _______ _______ _______ _____ _____    ______ ____
ROOT
ATOM      1  O   HOH     1      -1.791  10.735  24.792  0.00  0.00    +0.000 OA
ENDROOT
TORSDOF 0
REMARK  Name = ../refined-set-2016/3c39/3c39_pocket.pdb
REMARK  114 active torsions:
REMARK  status: ('A' for Active; 'I' for Inactive)
REMARK    1  A    between atoms: _1  and  _3
REMARK    2  A    between atoms: _3  and  _4
REMARK    3  A    between atoms: _3  and  _6
REMARK    4  A    between atoms: _6  and  _7
REMARK    5  A    between atoms: _7  and  _8
REMARK    6  A    between atoms: _8  and  _9
REMARK    7  A    between atoms: _18  and  _20
REMARK    8  A    between atoms: _20  and  _21
REMARK    9  A    between atoms: _20  and  _23
REMARK   10  A    between atoms: _26  and  _28
REMARK   11  A    between atoms: _28  and  _29
REMARK   12  A    between atoms: _28  and  _31
REMARK   13  A    between atoms: _31  and  _32
REMARK   14  A    between atoms: _35  and  _37
REMARK   15  A    between atoms: _37  and  _38
REMARK   16  A    between atoms: _37  and  _40
REMARK   17  A    between atoms: _40  and  _41
REMARK   18  A    between atoms: _47  and  _49
REMARK   19  A    between atoms: _49  and  _50
REMARK   20  A    between atoms: _49  and  _52
REMARK   21  A    between atoms: _52  and  _53
REMARK   22  A    between atoms: _58  and  _60
REMARK   23  A    between atoms: _60  and  _61
REMARK   24  A    between atoms: _60  and  _63
REMARK   25  A    between atoms: _66  and  _68
REMARK   26  A    between atoms: _68  and  _69
REMARK   27  A    between atoms: _68  and  _71
REMARK   28  A    between atoms: _71  and  _72
REMARK   29  A    between atoms: _72  and  _73
REMARK   30  A    between atoms: _73  and  _74
REMARK   31  A    between atoms: _83  and  _85
REMARK   32  A    between atoms: _85  and  _86
REMARK   33  A    between atoms: _85  and  _88
REMARK   34  A    between atoms: _88  and  _89
REMARK   35  A    between atoms: _91  and  _93
REMARK   36  A    between atoms: _93  and  _94
REMARK   37  A    between atoms: _93  and  _96
REMARK   38  A    between atoms: _96  and  _97
REMARK   39  A    between atoms: _102  and  _104
REMARK   40  A    between atoms: _104  and  _105
REMARK   41  A    between atoms: _104  and  _107
REMARK   42  A    between atoms: _107  and  _108
REMARK   43  A    between atoms: _111  and  _113
REMARK   44  A    between atoms: _113  and  _114
REMARK   45  A    between atoms: _116  and  _118
REMARK   46  A    between atoms: _118  and  _119
REMARK   47  A    between atoms: _118  and  _121
REMARK   48  A    between atoms: _121  and  _122
REMARK   49  A    between atoms: _122  and  _123
REMARK   50  A    between atoms: _123  and  _124
REMARK   51  A    between atoms: _134  and  _135
REMARK   52  A    between atoms: _140  and  _142
REMARK   53  A    between atoms: _142  and  _143
REMARK   54  A    between atoms: _142  and  _145
REMARK   55  A    between atoms: _145  and  _146
REMARK   56  A    between atoms: _149  and  _151
REMARK   57  A    between atoms: _151  and  _152
REMARK   58  A    between atoms: _151  and  _154
REMARK   59  A    between atoms: _154  and  _155
REMARK   60  A    between atoms: _155  and  _156
REMARK   61  A    between atoms: _156  and  _157
REMARK   62  A    between atoms: _166  and  _168
REMARK   63  A    between atoms: _168  and  _169
REMARK   64  A    between atoms: _168  and  _171
REMARK   65  A    between atoms: _171  and  _172
REMARK   66  A    between atoms: _172  and  _173
REMARK   67  A    between atoms: _176  and  _178
REMARK   68  A    between atoms: _178  and  _179
REMARK   69  A    between atoms: _182  and  _184
REMARK   70  A    between atoms: _184  and  _185
REMARK   71  A    between atoms: _184  and  _187
REMARK   72  A    between atoms: _187  and  _188
REMARK   73  A    between atoms: _194  and  _196
REMARK   74  A    between atoms: _196  and  _197
REMARK   75  A    between atoms: _199  and  _201
REMARK   76  A    between atoms: _201  and  _202
REMARK   77  A    between atoms: _201  and  _204
REMARK   78  A    between atoms: _204  and  _205
REMARK   79  A    between atoms: _208  and  _210
REMARK   80  A    between atoms: _210  and  _211
REMARK   81  A    between atoms: _214  and  _216
REMARK   82  A    between atoms: _216  and  _217
REMARK   83  A    between atoms: _216  and  _219
REMARK   84  A    between atoms: _219  and  _220
REMARK   85  A    between atoms: _225  and  _227
REMARK   86  A    between atoms: _227  and  _228
REMARK   87  A    between atoms: _227  and  _230
REMARK   88  A    between atoms: _230  and  _231
REMARK   89  A    between atoms: _231  and  _232
REMARK   90  A    between atoms: _232  and  _233
REMARK   91  A    between atoms: _242  and  _244
REMARK   92  A    between atoms: _244  and  _245
REMARK   93  A    between atoms: _244  and  _247
REMARK   94  A    between atoms: _247  and  _248
REMARK   95  A    between atoms: _253  and  _255
REMARK   96  A    between atoms: _255  and  _256
REMARK   97  A    between atoms: _255  and  _258
REMARK   98  A    between atoms: _258  and  _259
REMARK   99  A    between atoms: _262  and  _264
REMARK  100  A    between atoms: _264  and  _265
REMARK  101  A    between atoms: _267  and  _269
REMARK  102  A    between atoms: _269  and  _270
REMARK  103  A    between atoms: _272  and  _274
REMARK  104  A    between atoms: _274  and  _275
REMARK  105  A    between atoms: _277  and  _279
REMARK  106  A    between atoms: _279  and  _280
REMARK  107  A    between atoms: _283  and  _285
REMARK  108  A    between atoms: _285  and  _286
REMARK  109  A    between atoms: _285  and  _288
REMARK  110  A    between atoms: _288  and  _289
REMARK  111  A    between atoms: _291  and  _293
REMARK  112  A    between atoms: _293  and  _294
REMARK  113  A    between atoms: _293  and  _296
REMARK  114  A    between atoms: _296  and  _297
REMARK                            x       y       z     vdW  Elec       q    Type
REMARK                         _______ _______ _______ _____ _____    ______ ____
ROOT
ATOM      1  O   HOH     1       7.778   4.467  24.791  0.00  0.00    +0.000 OA
ENDROOT
TORSDOF 0
REMARK  Name = ../refined-set-2016/3c39/3c39_pocket.pdb
REMARK  114 active torsions:
REMARK  status: ('A' for Active; 'I' for Inactive)
REMARK    1  A    between atoms: _1  and  _3
REMARK    2  A    between atoms: _3  and  _4
REMARK    3  A    between atoms: _3  and  _6
REMARK    4  A    between atoms: _6  and  _7
REMARK    5  A    between atoms: _7  and  _8
REMARK    6  A    between atoms: _8  and  _9
REMARK    7  A    between atoms: _18  and  _20
REMARK    8  A    between atoms: _20  and  _21
REMARK    9  A    between atoms: _20  and  _23
REMARK   10  A    between atoms: _26  and  _28
REMARK   11  A    between atoms: _28  and  _29
REMARK   12  A    between atoms: _28  and  _31
REMARK   13  A    between atoms: _31  and  _32
REMARK   14  A    between atoms: _35  and  _37
REMARK   15  A    between atoms: _37  and  _38
REMARK   16  A    between atoms: _37  and  _40
REMARK   17  A    between atoms: _40  and  _41
REMARK   18  A    between atoms: _47  and  _49
REMARK   19  A    between atoms: _49  and  _50
REMARK   20  A    between atoms: _49  and  _52
REMARK   21  A    between atoms: _52  and  _53
REMARK   22  A    between atoms: _58  and  _60
REMARK   23  A    between atoms: _60  and  _61
REMARK   24  A    between atoms: _60  and  _63
REMARK   25  A    between atoms: _66  and  _68
REMARK   26  A    between atoms: _68  and  _69
REMARK   27  A    between atoms: _68  and  _71
REMARK   28  A    between atoms: _71  and  _72
REMARK   29  A    between atoms: _72  and  _73
REMARK   30  A    between atoms: _73  and  _74
REMARK   31  A    between atoms: _83  and  _85
REMARK   32  A    between atoms: _85  and  _86
REMARK   33  A    between atoms: _85  and  _88
REMARK   34  A    between atoms: _88  and  _89
REMARK   35  A    between atoms: _91  and  _93
REMARK   36  A    between atoms: _93  and  _94
REMARK   37  A    between atoms: _93  and  _96
REMARK   38  A    between atoms: _96  and  _97
REMARK   39  A    between atoms: _102  and  _104
REMARK   40  A    between atoms: _104  and  _105
REMARK   41  A    between atoms: _104  and  _107
REMARK   42  A    between atoms: _107  and  _108
REMARK   43  A    between atoms: _111  and  _113
REMARK   44  A    between atoms: _113  and  _114
REMARK   45  A    between atoms: _116  and  _118
REMARK   46  A    between atoms: _118  and  _119
REMARK   47  A    between atoms: _118  and  _121
REMARK   48  A    between atoms: _121  and  _122
REMARK   49  A    between atoms: _122  and  _123
REMARK   50  A    between atoms: _123  and  _124
REMARK   51  A    between atoms: _134  and  _135
REMARK   52  A    between atoms: _140  and  _142
REMARK   53  A    between atoms: _142  and  _143
REMARK   54  A    between atoms: _142  and  _145
REMARK   55  A    between atoms: _145  and  _146
REMARK   56  A    between atoms: _149  and  _151
REMARK   57  A    between atoms: _151  and  _152
REMARK   58  A    between atoms: _151  and  _154
REMARK   59  A    between atoms: _154  and  _155
REMARK   60  A    between atoms: _155  and  _156
REMARK   61  A    between atoms: _156  and  _157
REMARK   62  A    between atoms: _166  and  _168
REMARK   63  A    between atoms: _168  and  _169
REMARK   64  A    between atoms: _168  and  _171
REMARK   65  A    between atoms: _171  and  _172
REMARK   66  A    between atoms: _172  and  _173
REMARK   67  A    between atoms: _176  and  _178
REMARK   68  A    between atoms: _178  and  _179
REMARK   69  A    between atoms: _182  and  _184
REMARK   70  A    between atoms: _184  and  _185
REMARK   71  A    between atoms: _184  and  _187
REMARK   72  A    between atoms: _187  and  _188
REMARK   73  A    between atoms: _194  and  _196
REMARK   74  A    between atoms: _196  and  _197
REMARK   75  A    between atoms: _199  and  _201
REMARK   76  A    between atoms: _201  and  _202
REMARK   77  A    between atoms: _201  and  _204
REMARK   78  A    between atoms: _204  and  _205
REMARK   79  A    between atoms: _208  and  _210
REMARK   80  A    between atoms: _210  and  _211
REMARK   81  A    between atoms: _214  and  _216
REMARK   82  A    between atoms: _216  and  _217
REMARK   83  A    between atoms: _216  and  _219
REMARK   84  A    between atoms: _219  and  _220
REMARK   85  A    between atoms: _225  and  _227
REMARK   86  A    between atoms: _227  and  _228
REMARK   87  A    between atoms: _227  and  _230
REMARK   88  A    between atoms: _230  and  _231
REMARK   89  A    between atoms: _231  and  _232
REMARK   90  A    between atoms: _232  and  _233
REMARK   91  A    between atoms: _242  and  _244
REMARK   92  A    between atoms: _244  and  _245
REMARK   93  A    between atoms: _244  and  _247
REMARK   94  A    between atoms: _247  and  _248
REMARK   95  A    between atoms: _253  and  _255
REMARK   96  A    between atoms: _255  and  _256
REMARK   97  A    between atoms: _255  and  _258
REMARK   98  A    between atoms: _258  and  _259
REMARK   99  A    between atoms: _262  and  _264
REMARK  100  A    between atoms: _264  and  _265
REMARK  101  A    between atoms: _267  and  _269
REMARK  102  A    between atoms: _269  and  _270
REMARK  103  A    between atoms: _272  and  _274
REMARK  104  A    between atoms: _274  and  _275
REMARK  105  A    between atoms: _277  and  _279
REMARK  106  A    between atoms: _279  and  _280
REMARK  107  A    between atoms: _283  and  _285
REMARK  108  A    between atoms: _285  and  _286
REMARK  109  A    between atoms: _285  and  _288
REMARK  110  A    between atoms: _288  and  _289
REMARK  111  A    between atoms: _291  and  _293
REMARK  112  A    between atoms: _293  and  _294
REMARK  113  A    between atoms: _293  and  _296
REMARK  114  A    between atoms: _296  and  _297
REMARK                            x       y       z     vdW  Elec       q    Type
REMARK                         _______ _______ _______ _____ _____    ______ ____
ROOT
ATOM      1  O   HOH     1       7.757  10.794  25.815  0.00  0.00    +0.000 OA
ENDROOT
TORSDOF 0
REMARK  Name = ../refined-set-2016/3c39/3c39_pocket.pdb
REMARK  114 active torsions:
REMARK  status: ('A' for Active; 'I' for Inactive)
REMARK    1  A    between atoms: _1  and  _3
REMARK    2  A    between atoms: _3  and  _4
REMARK    3  A    between atoms: _3  and  _6
REMARK    4  A    between atoms: _6  and  _7
REMARK    5  A    between atoms: _7  and  _8
REMARK    6  A    between atoms: _8  and  _9
REMARK    7  A    between atoms: _18  and  _20
REMARK    8  A    between atoms: _20  and  _21
REMARK    9  A    between atoms: _20  and  _23
REMARK   10  A    between atoms: _26  and  _28
REMARK   11  A    between atoms: _28  and  _29
REMARK   12  A    between atoms: _28  and  _31
REMARK   13  A    between atoms: _31  and  _32
REMARK   14  A    between atoms: _35  and  _37
REMARK   15  A    between atoms: _37  and  _38
REMARK   16  A    between atoms: _37  and  _40
REMARK   17  A    between atoms: _40  and  _41
REMARK   18  A    between atoms: _47  and  _49
REMARK   19  A    between atoms: _49  and  _50
REMARK   20  A    between atoms: _49  and  _52
REMARK   21  A    between atoms: _52  and  _53
REMARK   22  A    between atoms: _58  and  _60
REMARK   23  A    between atoms: _60  and  _61
REMARK   24  A    between atoms: _60  and  _63
REMARK   25  A    between atoms: _66  and  _68
REMARK   26  A    between atoms: _68  and  _69
REMARK   27  A    between atoms: _68  and  _71
REMARK   28  A    between atoms: _71  and  _72
REMARK   29  A    between atoms: _72  and  _73
REMARK   30  A    between atoms: _73  and  _74
REMARK   31  A    between atoms: _83  and  _85
REMARK   32  A    between atoms: _85  and  _86
REMARK   33  A    between atoms: _85  and  _88
REMARK   34  A    between atoms: _88  and  _89
REMARK   35  A    between atoms: _91  and  _93
REMARK   36  A    between atoms: _93  and  _94
REMARK   37  A    between atoms: _93  and  _96
REMARK   38  A    between atoms: _96  and  _97
REMARK   39  A    between atoms: _102  and  _104
REMARK   40  A    between atoms: _104  and  _105
REMARK   41  A    between atoms: _104  and  _107
REMARK   42  A    between atoms: _107  and  _108
REMARK   43  A    between atoms: _111  and  _113
REMARK   44  A    between atoms: _113  and  _114
REMARK   45  A    between atoms: _116  and  _118
REMARK   46  A    between atoms: _118  and  _119
REMARK   47  A    between atoms: _118  and  _121
REMARK   48  A    between atoms: _121  and  _122
REMARK   49  A    between atoms: _122  and  _123
REMARK   50  A    between atoms: _123  and  _124
REMARK   51  A    between atoms: _134  and  _135
REMARK   52  A    between atoms: _140  and  _142
REMARK   53  A    between atoms: _142  and  _143
REMARK   54  A    between atoms: _142  and  _145
REMARK   55  A    between atoms: _145  and  _146
REMARK   56  A    between atoms: _149  and  _151
REMARK   57  A    between atoms: _151  and  _152
REMARK   58  A    between atoms: _151  and  _154
REMARK   59  A    between atoms: _154  and  _155
REMARK   60  A    between atoms: _155  and  _156
REMARK   61  A    between atoms: _156  and  _157
REMARK   62  A    between atoms: _166  and  _168
REMARK   63  A    between atoms: _168  and  _169
REMARK   64  A    between atoms: _168  and  _171
REMARK   65  A    between atoms: _171  and  _172
REMARK   66  A    between atoms: _172  and  _173
REMARK   67  A    between atoms: _176  and  _178
REMARK   68  A    between atoms: _178  and  _179
REMARK   69  A    between atoms: _182  and  _184
REMARK   70  A    between atoms: _184  and  _185
REMARK   71  A    between atoms: _184  and  _187
REMARK   72  A    between atoms: _187  and  _188
REMARK   73  A    between atoms: _194  and  _196
REMARK   74  A    between atoms: _196  and  _197
REMARK   75  A    between atoms: _199  and  _201
REMARK   76  A    between atoms: _201  and  _202
REMARK   77  A    between atoms: _201  and  _204
REMARK   78  A    between atoms: _204  and  _205
REMARK   79  A    between atoms: _208  and  _210
REMARK   80  A    between atoms: _210  and  _211
REMARK   81  A    between atoms: _214  and  _216
REMARK   82  A    between atoms: _216  and  _217
REMARK   83  A    between atoms: _216  and  _219
REMARK   84  A    between atoms: _219  and  _220
REMARK   85  A    between atoms: _225  and  _227
REMARK   86  A    between atoms: _227  and  _228
REMARK   87  A    between atoms: _227  and  _230
REMARK   88  A    between atoms: _230  and  _231
REMARK   89  A    between atoms: _231  and  _232
REMARK   90  A    between atoms: _232  and  _233
REMARK   91  A    between atoms: _242  and  _244
REMARK   92  A    between atoms: _244  and  _245
REMARK   93  A    between atoms: _244  and  _247
REMARK   94  A    between atoms: _247  and  _248
REMARK   95  A    between atoms: _253  and  _255
REMARK   96  A    between atoms: _255  and  _256
REMARK   97  A    between atoms: _255  and  _258
REMARK   98  A    between atoms: _258  and  _259
REMARK   99  A    between atoms: _262  and  _264
REMARK  100  A    between atoms: _264  and  _265
REMARK  101  A    between atoms: _267  and  _269
REMARK  102  A    between atoms: _269  and  _270
REMARK  103  A    between atoms: _272  and  _274
REMARK  104  A    between atoms: _274  and  _275
REMARK  105  A    between atoms: _277  and  _279
REMARK  106  A    between atoms: _279  and  _280
REMARK  107  A    between atoms: _283  and  _285
REMARK  108  A    between atoms: _285  and  _286
REMARK  109  A    between atoms: _285  and  _288
REMARK  110  A    between atoms: _288  and  _289
REMARK  111  A    between atoms: _291  and  _293
REMARK  112  A    between atoms: _293  and  _294
REMARK  113  A    between atoms: _293  and  _296
REMARK  114  A    between atoms: _296  and  _297
REMARK                            x       y       z     vdW  Elec       q    Type
REMARK                         _______ _______ _______ _____ _____    ______ ____
ROOT
ATOM      1  O   HOH     1       8.479  11.421  28.001  0.00  0.00    +0.000 OA
ENDROOT
TORSDOF 0
REMARK  Name = ../refined-set-2016/3c39/3c39_pocket.pdb
REMARK  114 active torsions:
REMARK  status: ('A' for Active; 'I' for Inactive)
REMARK    1  A    between atoms: _1  and  _3
REMARK    2  A    between atoms: _3  and  _4
REMARK    3  A    between atoms: _3  and  _6
REMARK    4  A    between atoms: _6  and  _7
REMARK    5  A    between atoms: _7  and  _8
REMARK    6  A    between atoms: _8  and  _9
REMARK    7  A    between atoms: _18  and  _20
REMARK    8  A    between atoms: _20  and  _21
REMARK    9  A    between atoms: _20  and  _23
REMARK   10  A    between atoms: _26  and  _28
REMARK   11  A    between atoms: _28  and  _29
REMARK   12  A    between atoms: _28  and  _31
REMARK   13  A    between atoms: _31  and  _32
REMARK   14  A    between atoms: _35  and  _37
REMARK   15  A    between atoms: _37  and  _38
REMARK   16  A    between atoms: _37  and  _40
REMARK   17  A    between atoms: _40  and  _41
REMARK   18  A    between atoms: _47  and  _49
REMARK   19  A    between atoms: _49  and  _50
REMARK   20  A    between atoms: _49  and  _52
REMARK   21  A    between atoms: _52  and  _53
REMARK   22  A    between atoms: _58  and  _60
REMARK   23  A    between atoms: _60  and  _61
REMARK   24  A    between atoms: _60  and  _63
REMARK   25  A    between atoms: _66  and  _68
REMARK   26  A    between atoms: _68  and  _69
REMARK   27  A    between atoms: _68  and  _71
REMARK   28  A    between atoms: _71  and  _72
REMARK   29  A    between atoms: _72  and  _73
REMARK   30  A    between atoms: _73  and  _74
REMARK   31  A    between atoms: _83  and  _85
REMARK   32  A    between atoms: _85  and  _86
REMARK   33  A    between atoms: _85  and  _88
REMARK   34  A    between atoms: _88  and  _89
REMARK   35  A    between atoms: _91  and  _93
REMARK   36  A    between atoms: _93  and  _94
REMARK   37  A    between atoms: _93  and  _96
REMARK   38  A    between atoms: _96  and  _97
REMARK   39  A    between atoms: _102  and  _104
REMARK   40  A    between atoms: _104  and  _105
REMARK   41  A    between atoms: _104  and  _107
REMARK   42  A    between atoms: _107  and  _108
REMARK   43  A    between atoms: _111  and  _113
REMARK   44  A    between atoms: _113  and  _114
REMARK   45  A    between atoms: _116  and  _118
REMARK   46  A    between atoms: _118  and  _119
REMARK   47  A    between atoms: _118  and  _121
REMARK   48  A    between atoms: _121  and  _122
REMARK   49  A    between atoms: _122  and  _123
REMARK   50  A    between atoms: _123  and  _124
REMARK   51  A    between atoms: _134  and  _135
REMARK   52  A    between atoms: _140  and  _142
REMARK   53  A    between atoms: _142  and  _143
REMARK   54  A    between atoms: _142  and  _145
REMARK   55  A    between atoms: _145  and  _146
REMARK   56  A    between atoms: _149  and  _151
REMARK   57  A    between atoms: _151  and  _152
REMARK   58  A    between atoms: _151  and  _154
REMARK   59  A    between atoms: _154  and  _155
REMARK   60  A    between atoms: _155  and  _156
REMARK   61  A    between atoms: _156  and  _157
REMARK   62  A    between atoms: _166  and  _168
REMARK   63  A    between atoms: _168  and  _169
REMARK   64  A    between atoms: _168  and  _171
REMARK   65  A    between atoms: _171  and  _172
REMARK   66  A    between atoms: _172  and  _173
REMARK   67  A    between atoms: _176  and  _178
REMARK   68  A    between atoms: _178  and  _179
REMARK   69  A    between atoms: _182  and  _184
REMARK   70  A    between atoms: _184  and  _185
REMARK   71  A    between atoms: _184  and  _187
REMARK   72  A    between atoms: _187  and  _188
REMARK   73  A    between atoms: _194  and  _196
REMARK   74  A    between atoms: _196  and  _197
REMARK   75  A    between atoms: _199  and  _201
REMARK   76  A    between atoms: _201  and  _202
REMARK   77  A    between atoms: _201  and  _204
REMARK   78  A    between atoms: _204  and  _205
REMARK   79  A    between atoms: _208  and  _210
REMARK   80  A    between atoms: _210  and  _211
REMARK   81  A    between atoms: _214  and  _216
REMARK   82  A    between atoms: _216  and  _217
REMARK   83  A    between atoms: _216  and  _219
REMARK   84  A    between atoms: _219  and  _220
REMARK   85  A    between atoms: _225  and  _227
REMARK   86  A    between atoms: _227  and  _228
REMARK   87  A    between atoms: _227  and  _230
REMARK   88  A    between atoms: _230  and  _231
REMARK   89  A    between atoms: _231  and  _232
REMARK   90  A    between atoms: _232  and  _233
REMARK   91  A    between atoms: _242  and  _244
REMARK   92  A    between atoms: _244  and  _245
REMARK   93  A    between atoms: _244  and  _247
REMARK   94  A    between atoms: _247  and  _248
REMARK   95  A    between atoms: _253  and  _255
REMARK   96  A    between atoms: _255  and  _256
REMARK   97  A    between atoms: _255  and  _258
REMARK   98  A    between atoms: _258  and  _259
REMARK   99  A    between atoms: _262  and  _264
REMARK  100  A    between atoms: _264  and  _265
REMARK  101  A    between atoms: _267  and  _269
REMARK  102  A    between atoms: _269  and  _270
REMARK  103  A    between atoms: _272  and  _274
REMARK  104  A    between atoms: _274  and  _275
REMARK  105  A    between atoms: _277  and  _279
REMARK  106  A    between atoms: _279  and  _280
REMARK  107  A    between atoms: _283  and  _285
REMARK  108  A    between atoms: _285  and  _286
REMARK  109  A    between atoms: _285  and  _288
REMARK  110  A    between atoms: _288  and  _289
REMARK  111  A    between atoms: _291  and  _293
REMARK  112  A    between atoms: _293  and  _294
REMARK  113  A    between atoms: _293  and  _296
REMARK  114  A    between atoms: _296  and  _297
REMARK                            x       y       z     vdW  Elec       q    Type
REMARK                         _______ _______ _______ _____ _____    ______ ____
ROOT
ATOM      1  O   HOH     1      13.843   3.549  19.938  0.00  0.00    +0.000 OA
ENDROOT
TORSDOF 0
