REMARK  Name = ../refined-set-2016/2pk6/2pk6_pocket.pdb
REMARK  241 active torsions:
REMARK  status: ('A' for Active; 'I' for Inactive)
REMARK    1  A    between atoms: _1  and  _3
REMARK    2  A    between atoms: _3  and  _4
REMARK    3  A    between atoms: _3  and  _6
REMARK    4  A    between atoms: _6  and  _7
REMARK    5  A    between atoms: _7  and  _8
REMARK    6  A    between atoms: _8  and  _9
REMARK    7  A    between atoms: _18  and  _20
REMARK    8  A    between atoms: _20  and  _21
REMARK    9  A    between atoms: _20  and  _23
REMARK   10  A    between atoms: _23  and  _24
REMARK   11  A    between atoms: _27  and  _29
REMARK   12  A    between atoms: _29  and  _30
REMARK   13  A    between atoms: _29  and  _32
REMARK   14  A    between atoms: _32  and  _33
REMARK   15  A    between atoms: _36  and  _38
REMARK   16  A    between atoms: _38  and  _39
REMARK   17  A    between atoms: _38  and  _41
REMARK   18  A    between atoms: _41  and  _42
REMARK   19  A    between atoms: _45  and  _47
REMARK   20  A    between atoms: _47  and  _48
REMARK   21  A    between atoms: _47  and  _50
REMARK   22  A    between atoms: _50  and  _51
REMARK   23  A    between atoms: _54  and  _56
REMARK   24  A    between atoms: _56  and  _57
REMARK   25  A    between atoms: _59  and  _61
REMARK   26  A    between atoms: _61  and  _62
REMARK   27  A    between atoms: _65  and  _67
REMARK   28  A    between atoms: _67  and  _68
REMARK   29  A    between atoms: _67  and  _70
REMARK   30  A    between atoms: _70  and  _71
REMARK   31  A    between atoms: _74  and  _76
REMARK   32  A    between atoms: _76  and  _77
REMARK   33  A    between atoms: _76  and  _79
REMARK   34  A    between atoms: _79  and  _80
REMARK   35  A    between atoms: _83  and  _85
REMARK   36  A    between atoms: _85  and  _86
REMARK   37  A    between atoms: _85  and  _88
REMARK   38  A    between atoms: _88  and  _89
REMARK   39  A    between atoms: _92  and  _94
REMARK   40  A    between atoms: _94  and  _95
REMARK   41  A    between atoms: _94  and  _97
REMARK   42  A    between atoms: _100  and  _102
REMARK   43  A    between atoms: _102  and  _103
REMARK   44  A    between atoms: _102  and  _105
REMARK   45  A    between atoms: _105  and  _106
REMARK   46  A    between atoms: _109  and  _111
REMARK   47  A    between atoms: _111  and  _112
REMARK   48  A    between atoms: _111  and  _114
REMARK   49  A    between atoms: _114  and  _115
REMARK   50  A    between atoms: _115  and  _116
REMARK   51  A    between atoms: _116  and  _117
REMARK   52  A    between atoms: _117  and  _118
REMARK   53  A    between atoms: _122  and  _124
REMARK   54  A    between atoms: _124  and  _125
REMARK   55  A    between atoms: _124  and  _127
REMARK   56  A    between atoms: _127  and  _128
REMARK   57  A    between atoms: _128  and  _129
REMARK   58  A    between atoms: _131  and  _133
REMARK   59  A    between atoms: _133  and  _134
REMARK   60  A    between atoms: _133  and  _136
REMARK   61  A    between atoms: _136  and  _137
REMARK   62  A    between atoms: _140  and  _142
REMARK   63  A    between atoms: _142  and  _143
REMARK   64  A    between atoms: _145  and  _147
REMARK   65  A    between atoms: _147  and  _148
REMARK   66  A    between atoms: _150  and  _152
REMARK   67  A    between atoms: _152  and  _153
REMARK   68  A    between atoms: _152  and  _155
REMARK   69  A    between atoms: _155  and  _156
REMARK   70  A    between atoms: _159  and  _161
REMARK   71  A    between atoms: _161  and  _162
REMARK   72  A    between atoms: _164  and  _166
REMARK   73  A    between atoms: _166  and  _167
REMARK   74  A    between atoms: _169  and  _171
REMARK   75  A    between atoms: _171  and  _172
REMARK   76  A    between atoms: _171  and  _174
REMARK   77  A    between atoms: _174  and  _175
REMARK   78  A    between atoms: _181  and  _183
REMARK   79  A    between atoms: _183  and  _184
REMARK   80  A    between atoms: _183  and  _186
REMARK   81  A    between atoms: _186  and  _187
REMARK   82  A    between atoms: _190  and  _192
REMARK   83  A    between atoms: _192  and  _193
REMARK   84  A    between atoms: _192  and  _195
REMARK   85  A    between atoms: _198  and  _200
REMARK   86  A    between atoms: _200  and  _201
REMARK   87  A    between atoms: _200  and  _203
REMARK   88  A    between atoms: _203  and  _204
REMARK   89  A    between atoms: _208  and  _209
REMARK   90  A    between atoms: _214  and  _216
REMARK   91  A    between atoms: _216  and  _217
REMARK   92  A    between atoms: _216  and  _219
REMARK   93  A    between atoms: _219  and  _220
REMARK   94  A    between atoms: _224  and  _225
REMARK   95  A    between atoms: _230  and  _232
REMARK   96  A    between atoms: _232  and  _233
REMARK   97  A    between atoms: _232  and  _235
REMARK   98  A    between atoms: _238  and  _240
REMARK   99  A    between atoms: _240  and  _241
REMARK  100  A    between atoms: _240  and  _243
REMARK  101  A    between atoms: _243  and  _244
REMARK  102  A    between atoms: _249  and  _251
REMARK  103  A    between atoms: _251  and  _252
REMARK  104  A    between atoms: _251  and  _254
REMARK  105  A    between atoms: _254  and  _255
REMARK  106  A    between atoms: _258  and  _260
REMARK  107  A    between atoms: _260  and  _261
REMARK  108  A    between atoms: _260  and  _263
REMARK  109  A    between atoms: _263  and  _264
REMARK  110  A    between atoms: _267  and  _269
REMARK  111  A    between atoms: _269  and  _270
REMARK  112  A    between atoms: _272  and  _274
REMARK  113  A    between atoms: _274  and  _275
REMARK  114  A    between atoms: _274  and  _277
REMARK  115  A    between atoms: _277  and  _278
REMARK  116  A    between atoms: _278  and  _279
REMARK  117  A    between atoms: _279  and  _280
REMARK  118  A    between atoms: _289  and  _291
REMARK  119  A    between atoms: _291  and  _292
REMARK  120  A    between atoms: _291  and  _294
REMARK  121  A    between atoms: _294  and  _295
REMARK  122  A    between atoms: _300  and  _302
REMARK  123  A    between atoms: _302  and  _303
REMARK  124  A    between atoms: _302  and  _305
REMARK  125  A    between atoms: _305  and  _306
REMARK  126  A    between atoms: _306  and  _307
REMARK  127  A    between atoms: _307  and  _308
REMARK  128  A    between atoms: _317  and  _319
REMARK  129  A    between atoms: _319  and  _320
REMARK  130  A    between atoms: _319  and  _322
REMARK  131  A    between atoms: _322  and  _323
REMARK  132  A    between atoms: _326  and  _328
REMARK  133  A    between atoms: _328  and  _329
REMARK  134  A    between atoms: _328  and  _331
REMARK  135  A    between atoms: _331  and  _332
REMARK  136  A    between atoms: _335  and  _337
REMARK  137  A    between atoms: _337  and  _338
REMARK  138  A    between atoms: _337  and  _340
REMARK  139  A    between atoms: _340  and  _341
REMARK  140  A    between atoms: _344  and  _346
REMARK  141  A    between atoms: _346  and  _347
REMARK  142  A    between atoms: _346  and  _349
REMARK  143  A    between atoms: _349  and  _350
REMARK  144  A    between atoms: _353  and  _355
REMARK  145  A    between atoms: _355  and  _356
REMARK  146  A    between atoms: _355  and  _358
REMARK  147  A    between atoms: _358  and  _359
REMARK  148  A    between atoms: _362  and  _364
REMARK  149  A    between atoms: _364  and  _365
REMARK  150  A    between atoms: _367  and  _369
REMARK  151  A    between atoms: _369  and  _370
REMARK  152  A    between atoms: _373  and  _375
REMARK  153  A    between atoms: _375  and  _376
REMARK  154  A    between atoms: _375  and  _378
REMARK  155  A    between atoms: _378  and  _379
REMARK  156  A    between atoms: _382  and  _384
REMARK  157  A    between atoms: _384  and  _385
REMARK  158  A    between atoms: _384  and  _387
REMARK  159  A    between atoms: _387  and  _388
REMARK  160  A    between atoms: _391  and  _393
REMARK  161  A    between atoms: _393  and  _394
REMARK  162  A    between atoms: _393  and  _396
REMARK  163  A    between atoms: _396  and  _397
REMARK  164  A    between atoms: _400  and  _402
REMARK  165  A    between atoms: _402  and  _403
REMARK  166  A    between atoms: _402  and  _405
REMARK  167  A    between atoms: _408  and  _410
REMARK  168  A    between atoms: _410  and  _411
REMARK  169  A    between atoms: _410  and  _413
REMARK  170  A    between atoms: _413  and  _414
REMARK  171  A    between atoms: _414  and  _415
REMARK  172  A    between atoms: _415  and  _416
REMARK  173  A    between atoms: _416  and  _417
REMARK  174  A    between atoms: _421  and  _423
REMARK  175  A    between atoms: _423  and  _424
REMARK  176  A    between atoms: _423  and  _426
REMARK  177  A    between atoms: _426  and  _427
REMARK  178  A    between atoms: _427  and  _428
REMARK  179  A    between atoms: _430  and  _432
REMARK  180  A    between atoms: _432  and  _433
REMARK  181  A    between atoms: _432  and  _435
REMARK  182  A    between atoms: _435  and  _436
REMARK  183  A    between atoms: _439  and  _441
REMARK  184  A    between atoms: _441  and  _442
REMARK  185  A    between atoms: _444  and  _446
REMARK  186  A    between atoms: _446  and  _447
REMARK  187  A    between atoms: _449  and  _451
REMARK  188  A    between atoms: _451  and  _452
REMARK  189  A    between atoms: _451  and  _454
REMARK  190  A    between atoms: _454  and  _455
REMARK  191  A    between atoms: _458  and  _460
REMARK  192  A    between atoms: _460  and  _461
REMARK  193  A    between atoms: _463  and  _465
REMARK  194  A    between atoms: _465  and  _466
REMARK  195  A    between atoms: _468  and  _470
REMARK  196  A    between atoms: _470  and  _471
REMARK  197  A    between atoms: _470  and  _473
REMARK  198  A    between atoms: _473  and  _474
REMARK  199  A    between atoms: _480  and  _482
REMARK  200  A    between atoms: _482  and  _483
REMARK  201  A    between atoms: _482  and  _485
REMARK  202  A    between atoms: _485  and  _486
REMARK  203  A    between atoms: _489  and  _491
REMARK  204  A    between atoms: _491  and  _492
REMARK  205  A    between atoms: _491  and  _494
REMARK  206  A    between atoms: _497  and  _499
REMARK  207  A    between atoms: _499  and  _500
REMARK  208  A    between atoms: _499  and  _502
REMARK  209  A    between atoms: _502  and  _503
REMARK  210  A    between atoms: _506  and  _508
REMARK  211  A    between atoms: _508  and  _509
REMARK  212  A    between atoms: _508  and  _511
REMARK  213  A    between atoms: _511  and  _512
REMARK  214  A    between atoms: _516  and  _517
REMARK  215  A    between atoms: _522  and  _524
REMARK  216  A    between atoms: _524  and  _525
REMARK  217  A    between atoms: _524  and  _527
REMARK  218  A    between atoms: _530  and  _532
REMARK  219  A    between atoms: _532  and  _533
REMARK  220  A    between atoms: _532  and  _535
REMARK  221  A    between atoms: _535  and  _536
REMARK  222  A    between atoms: _541  and  _543
REMARK  223  A    between atoms: _543  and  _544
REMARK  224  A    between atoms: _543  and  _546
REMARK  225  A    between atoms: _546  and  _547
REMARK  226  A    between atoms: _550  and  _552
REMARK  227  A    between atoms: _552  and  _553
REMARK  228  A    between atoms: _552  and  _555
REMARK  229  A    between atoms: _555  and  _556
REMARK  230  A    between atoms: _559  and  _561
REMARK  231  A    between atoms: _561  and  _562
REMARK  232  A    between atoms: _564  and  _566
REMARK  233  A    between atoms: _566  and  _567
REMARK  234  A    between atoms: _566  and  _569
REMARK  235  A    between atoms: _569  and  _570
REMARK  236  A    between atoms: _570  and  _571
REMARK  237  A    between atoms: _571  and  _572
REMARK  238  A    between atoms: _581  and  _583
REMARK  239  A    between atoms: _583  and  _584
REMARK  240  A    between atoms: _583  and  _586
REMARK  241  A    between atoms: _586  and  _587
REMARK                            x       y       z     vdW  Elec       q    Type
REMARK                         _______ _______ _______ _____ _____    ______ ____
ROOT
ATOM      1  NE  ARG A   1      23.168 -23.023 -15.526  0.00  0.00    -0.265 N 
ATOM      2  CZ  ARG A   1      23.084 -24.131 -14.777  0.00  0.00    +0.342 C 
ATOM      3  NH2 ARG A   1      23.451 -24.121 -13.484  0.00  0.00    -0.292 N 
ATOM      4 HH21 ARG A   1      23.380 -24.990 -12.916  0.00  0.00    +0.255 HD
ATOM      5 HH22 ARG A   1      23.806 -23.245 -13.051  0.00  0.00    +0.255 HD
ATOM      6  NH1 ARG A   1      22.629 -25.246 -15.318  0.00  0.00    -0.292 N 
ATOM      7 HH11 ARG A   1      22.560 -26.111 -14.745  0.00  0.00    +0.255 HD
ATOM      8 HH12 ARG A   1      22.340 -25.259 -16.317  0.00  0.00    +0.255 HD
ATOM      9  HE  ARG A   1      22.893 -23.094 -16.526  0.00  0.00    +0.259 HD
ENDROOT
BRANCH   1  10
ATOM     10  CD  ARG A   1      23.621 -21.714 -15.034  0.00  0.00    +0.174 C 
BRANCH  10  11
ATOM     11  CG  ARG A   1      23.998 -20.800 -16.165  0.00  0.00    +0.045 C 
BRANCH  11  12
ATOM     12  CB  ARG A   1      24.469 -19.455 -15.692  0.00  0.00    +0.029 C 
BRANCH  12  13
ATOM     13  CA  ARG A   1      25.083 -18.616 -16.826  0.00  0.00    +0.133 C 
BRANCH  13  14
ATOM     14  N   ARG A   1      26.297 -19.273 -17.335  0.00  0.00    -0.239 NA
ATOM     15  H   ARG A   1      26.612 -20.170 -16.914  0.00  0.00    +0.142 HD
ENDBRANCH  13  14
BRANCH  13  16
ATOM     16  C   ARG A   1      25.413 -17.216 -16.326  0.00  0.00    +0.224 C 
ATOM     17  O   ARG A   1      26.382 -17.071 -15.585  0.00  0.00    -0.287 OA
ENDBRANCH  13  16
ENDBRANCH  12  13
ENDBRANCH  11  12
ENDBRANCH  10  11
ENDBRANCH   1  10
TORSDOF 6
REMARK  Name = ../refined-set-2016/2pk6/2pk6_pocket.pdb
REMARK  241 active torsions:
REMARK  status: ('A' for Active; 'I' for Inactive)
REMARK    1  A    between atoms: _1  and  _3
REMARK    2  A    between atoms: _3  and  _4
REMARK    3  A    between atoms: _3  and  _6
REMARK    4  A    between atoms: _6  and  _7
REMARK    5  A    between atoms: _7  and  _8
REMARK    6  A    between atoms: _8  and  _9
REMARK    7  A    between atoms: _18  and  _20
REMARK    8  A    between atoms: _20  and  _21
REMARK    9  A    between atoms: _20  and  _23
REMARK   10  A    between atoms: _23  and  _24
REMARK   11  A    between atoms: _27  and  _29
REMARK   12  A    between atoms: _29  and  _30
REMARK   13  A    between atoms: _29  and  _32
REMARK   14  A    between atoms: _32  and  _33
REMARK   15  A    between atoms: _36  and  _38
REMARK   16  A    between atoms: _38  and  _39
REMARK   17  A    between atoms: _38  and  _41
REMARK   18  A    between atoms: _41  and  _42
REMARK   19  A    between atoms: _45  and  _47
REMARK   20  A    between atoms: _47  and  _48
REMARK   21  A    between atoms: _47  and  _50
REMARK   22  A    between atoms: _50  and  _51
REMARK   23  A    between atoms: _54  and  _56
REMARK   24  A    between atoms: _56  and  _57
REMARK   25  A    between atoms: _59  and  _61
REMARK   26  A    between atoms: _61  and  _62
REMARK   27  A    between atoms: _65  and  _67
REMARK   28  A    between atoms: _67  and  _68
REMARK   29  A    between atoms: _67  and  _70
REMARK   30  A    between atoms: _70  and  _71
REMARK   31  A    between atoms: _74  and  _76
REMARK   32  A    between atoms: _76  and  _77
REMARK   33  A    between atoms: _76  and  _79
REMARK   34  A    between atoms: _79  and  _80
REMARK   35  A    between atoms: _83  and  _85
REMARK   36  A    between atoms: _85  and  _86
REMARK   37  A    between atoms: _85  and  _88
REMARK   38  A    between atoms: _88  and  _89
REMARK   39  A    between atoms: _92  and  _94
REMARK   40  A    between atoms: _94  and  _95
REMARK   41  A    between atoms: _94  and  _97
REMARK   42  A    between atoms: _100  and  _102
REMARK   43  A    between atoms: _102  and  _103
REMARK   44  A    between atoms: _102  and  _105
REMARK   45  A    between atoms: _105  and  _106
REMARK   46  A    between atoms: _109  and  _111
REMARK   47  A    between atoms: _111  and  _112
REMARK   48  A    between atoms: _111  and  _114
REMARK   49  A    between atoms: _114  and  _115
REMARK   50  A    between atoms: _115  and  _116
REMARK   51  A    between atoms: _116  and  _117
REMARK   52  A    between atoms: _117  and  _118
REMARK   53  A    between atoms: _122  and  _124
REMARK   54  A    between atoms: _124  and  _125
REMARK   55  A    between atoms: _124  and  _127
REMARK   56  A    between atoms: _127  and  _128
REMARK   57  A    between atoms: _128  and  _129
REMARK   58  A    between atoms: _131  and  _133
REMARK   59  A    between atoms: _133  and  _134
REMARK   60  A    between atoms: _133  and  _136
REMARK   61  A    between atoms: _136  and  _137
REMARK   62  A    between atoms: _140  and  _142
REMARK   63  A    between atoms: _142  and  _143
REMARK   64  A    between atoms: _145  and  _147
REMARK   65  A    between atoms: _147  and  _148
REMARK   66  A    between atoms: _150  and  _152
REMARK   67  A    between atoms: _152  and  _153
REMARK   68  A    between atoms: _152  and  _155
REMARK   69  A    between atoms: _155  and  _156
REMARK   70  A    between atoms: _159  and  _161
REMARK   71  A    between atoms: _161  and  _162
REMARK   72  A    between atoms: _164  and  _166
REMARK   73  A    between atoms: _166  and  _167
REMARK   74  A    between atoms: _169  and  _171
REMARK   75  A    between atoms: _171  and  _172
REMARK   76  A    between atoms: _171  and  _174
REMARK   77  A    between atoms: _174  and  _175
REMARK   78  A    between atoms: _181  and  _183
REMARK   79  A    between atoms: _183  and  _184
REMARK   80  A    between atoms: _183  and  _186
REMARK   81  A    between atoms: _186  and  _187
REMARK   82  A    between atoms: _190  and  _192
REMARK   83  A    between atoms: _192  and  _193
REMARK   84  A    between atoms: _192  and  _195
REMARK   85  A    between atoms: _198  and  _200
REMARK   86  A    between atoms: _200  and  _201
REMARK   87  A    between atoms: _200  and  _203
REMARK   88  A    between atoms: _203  and  _204
REMARK   89  A    between atoms: _208  and  _209
REMARK   90  A    between atoms: _214  and  _216
REMARK   91  A    between atoms: _216  and  _217
REMARK   92  A    between atoms: _216  and  _219
REMARK   93  A    between atoms: _219  and  _220
REMARK   94  A    between atoms: _224  and  _225
REMARK   95  A    between atoms: _230  and  _232
REMARK   96  A    between atoms: _232  and  _233
REMARK   97  A    between atoms: _232  and  _235
REMARK   98  A    between atoms: _238  and  _240
REMARK   99  A    between atoms: _240  and  _241
REMARK  100  A    between atoms: _240  and  _243
REMARK  101  A    between atoms: _243  and  _244
REMARK  102  A    between atoms: _249  and  _251
REMARK  103  A    between atoms: _251  and  _252
REMARK  104  A    between atoms: _251  and  _254
REMARK  105  A    between atoms: _254  and  _255
REMARK  106  A    between atoms: _258  and  _260
REMARK  107  A    between atoms: _260  and  _261
REMARK  108  A    between atoms: _260  and  _263
REMARK  109  A    between atoms: _263  and  _264
REMARK  110  A    between atoms: _267  and  _269
REMARK  111  A    between atoms: _269  and  _270
REMARK  112  A    between atoms: _272  and  _274
REMARK  113  A    between atoms: _274  and  _275
REMARK  114  A    between atoms: _274  and  _277
REMARK  115  A    between atoms: _277  and  _278
REMARK  116  A    between atoms: _278  and  _279
REMARK  117  A    between atoms: _279  and  _280
REMARK  118  A    between atoms: _289  and  _291
REMARK  119  A    between atoms: _291  and  _292
REMARK  120  A    between atoms: _291  and  _294
REMARK  121  A    between atoms: _294  and  _295
REMARK  122  A    between atoms: _300  and  _302
REMARK  123  A    between atoms: _302  and  _303
REMARK  124  A    between atoms: _302  and  _305
REMARK  125  A    between atoms: _305  and  _306
REMARK  126  A    between atoms: _306  and  _307
REMARK  127  A    between atoms: _307  and  _308
REMARK  128  A    between atoms: _317  and  _319
REMARK  129  A    between atoms: _319  and  _320
REMARK  130  A    between atoms: _319  and  _322
REMARK  131  A    between atoms: _322  and  _323
REMARK  132  A    between atoms: _326  and  _328
REMARK  133  A    between atoms: _328  and  _329
REMARK  134  A    between atoms: _328  and  _331
REMARK  135  A    between atoms: _331  and  _332
REMARK  136  A    between atoms: _335  and  _337
REMARK  137  A    between atoms: _337  and  _338
REMARK  138  A    between atoms: _337  and  _340
REMARK  139  A    between atoms: _340  and  _341
REMARK  140  A    between atoms: _344  and  _346
REMARK  141  A    between atoms: _346  and  _347
REMARK  142  A    between atoms: _346  and  _349
REMARK  143  A    between atoms: _349  and  _350
REMARK  144  A    between atoms: _353  and  _355
REMARK  145  A    between atoms: _355  and  _356
REMARK  146  A    between atoms: _355  and  _358
REMARK  147  A    between atoms: _358  and  _359
REMARK  148  A    between atoms: _362  and  _364
REMARK  149  A    between atoms: _364  and  _365
REMARK  150  A    between atoms: _367  and  _369
REMARK  151  A    between atoms: _369  and  _370
REMARK  152  A    between atoms: _373  and  _375
REMARK  153  A    between atoms: _375  and  _376
REMARK  154  A    between atoms: _375  and  _378
REMARK  155  A    between atoms: _378  and  _379
REMARK  156  A    between atoms: _382  and  _384
REMARK  157  A    between atoms: _384  and  _385
REMARK  158  A    between atoms: _384  and  _387
REMARK  159  A    between atoms: _387  and  _388
REMARK  160  A    between atoms: _391  and  _393
REMARK  161  A    between atoms: _393  and  _394
REMARK  162  A    between atoms: _393  and  _396
REMARK  163  A    between atoms: _396  and  _397
REMARK  164  A    between atoms: _400  and  _402
REMARK  165  A    between atoms: _402  and  _403
REMARK  166  A    between atoms: _402  and  _405
REMARK  167  A    between atoms: _408  and  _410
REMARK  168  A    between atoms: _410  and  _411
REMARK  169  A    between atoms: _410  and  _413
REMARK  170  A    between atoms: _413  and  _414
REMARK  171  A    between atoms: _414  and  _415
REMARK  172  A    between atoms: _415  and  _416
REMARK  173  A    between atoms: _416  and  _417
REMARK  174  A    between atoms: _421  and  _423
REMARK  175  A    between atoms: _423  and  _424
REMARK  176  A    between atoms: _423  and  _426
REMARK  177  A    between atoms: _426  and  _427
REMARK  178  A    between atoms: _427  and  _428
REMARK  179  A    between atoms: _430  and  _432
REMARK  180  A    between atoms: _432  and  _433
REMARK  181  A    between atoms: _432  and  _435
REMARK  182  A    between atoms: _435  and  _436
REMARK  183  A    between atoms: _439  and  _441
REMARK  184  A    between atoms: _441  and  _442
REMARK  185  A    between atoms: _444  and  _446
REMARK  186  A    between atoms: _446  and  _447
REMARK  187  A    between atoms: _449  and  _451
REMARK  188  A    between atoms: _451  and  _452
REMARK  189  A    between atoms: _451  and  _454
REMARK  190  A    between atoms: _454  and  _455
REMARK  191  A    between atoms: _458  and  _460
REMARK  192  A    between atoms: _460  and  _461
REMARK  193  A    between atoms: _463  and  _465
REMARK  194  A    between atoms: _465  and  _466
REMARK  195  A    between atoms: _468  and  _470
REMARK  196  A    between atoms: _470  and  _471
REMARK  197  A    between atoms: _470  and  _473
REMARK  198  A    between atoms: _473  and  _474
REMARK  199  A    between atoms: _480  and  _482
REMARK  200  A    between atoms: _482  and  _483
REMARK  201  A    between atoms: _482  and  _485
REMARK  202  A    between atoms: _485  and  _486
REMARK  203  A    between atoms: _489  and  _491
REMARK  204  A    between atoms: _491  and  _492
REMARK  205  A    between atoms: _491  and  _494
REMARK  206  A    between atoms: _497  and  _499
REMARK  207  A    between atoms: _499  and  _500
REMARK  208  A    between atoms: _499  and  _502
REMARK  209  A    between atoms: _502  and  _503
REMARK  210  A    between atoms: _506  and  _508
REMARK  211  A    between atoms: _508  and  _509
REMARK  212  A    between atoms: _508  and  _511
REMARK  213  A    between atoms: _511  and  _512
REMARK  214  A    between atoms: _516  and  _517
REMARK  215  A    between atoms: _522  and  _524
REMARK  216  A    between atoms: _524  and  _525
REMARK  217  A    between atoms: _524  and  _527
REMARK  218  A    between atoms: _530  and  _532
REMARK  219  A    between atoms: _532  and  _533
REMARK  220  A    between atoms: _532  and  _535
REMARK  221  A    between atoms: _535  and  _536
REMARK  222  A    between atoms: _541  and  _543
REMARK  223  A    between atoms: _543  and  _544
REMARK  224  A    between atoms: _543  and  _546
REMARK  225  A    between atoms: _546  and  _547
REMARK  226  A    between atoms: _550  and  _552
REMARK  227  A    between atoms: _552  and  _553
REMARK  228  A    between atoms: _552  and  _555
REMARK  229  A    between atoms: _555  and  _556
REMARK  230  A    between atoms: _559  and  _561
REMARK  231  A    between atoms: _561  and  _562
REMARK  232  A    between atoms: _564  and  _566
REMARK  233  A    between atoms: _566  and  _567
REMARK  234  A    between atoms: _566  and  _569
REMARK  235  A    between atoms: _569  and  _570
REMARK  236  A    between atoms: _570  and  _571
REMARK  237  A    between atoms: _571  and  _572
REMARK  238  A    between atoms: _581  and  _583
REMARK  239  A    between atoms: _583  and  _584
REMARK  240  A    between atoms: _583  and  _586
REMARK  241  A    between atoms: _586  and  _587
REMARK                            x       y       z     vdW  Elec       q    Type
REMARK                         _______ _______ _______ _____ _____    ______ ____
ROOT
ATOM      1  C   ALA A   6      10.710 -12.853 -17.507  0.00  0.00    +0.241 C 
ATOM      2  N   ASP A   7       9.354 -12.872 -17.493  0.00  0.00    -0.297 N 
ATOM      3  H   ASP A   7       8.833 -13.772 -17.512  0.00  0.00    +0.150 HD
ATOM      4  O   ALA A   6      11.396 -11.821 -17.567  0.00  0.00    -0.273 OA
ENDROOT
BRANCH   1   5
ATOM      5  CA  ALA A   6      11.425 -14.205 -17.483  0.00  0.00    +0.149 C 
ATOM      6  CB  ALA A   6      12.141 -14.359 -16.180  0.00  0.00    +0.031 C 
BRANCH   5   8
ATOM      7  C   GLY A   5      12.061 -15.038 -19.698  0.00  0.00    +0.243 C 
ATOM      8  N   ALA A   6      12.369 -14.280 -18.624  0.00  0.00    -0.297 N 
ATOM      9  H   ALA A   6      13.264 -13.751 -18.597  0.00  0.00    +0.150 HD
ATOM     10  O   GLY A   5      10.943 -15.578 -19.847  0.00  0.00    -0.273 OA
BRANCH   7  11
ATOM     11  CA  GLY A   5      13.098 -15.111 -20.799  0.00  0.00    +0.176 C 
BRANCH  11  13
ATOM     12  C   THR A   4      14.343 -13.041 -20.870  0.00  0.00    +0.243 C 
ATOM     13  N   GLY A   5      14.326 -14.347 -20.582  0.00  0.00    -0.295 N 
ATOM     14  H   GLY A   5      15.177 -14.814 -20.208  0.00  0.00    +0.150 HD
ATOM     15  O   THR A   4      13.398 -12.445 -21.448  0.00  0.00    -0.273 OA
BRANCH  12  16
ATOM     16  CA  THR A   4      15.593 -12.282 -20.504  0.00  0.00    +0.176 C 
BRANCH  16  19
ATOM     17  C   ASP A   3      16.051 -13.174 -18.313  0.00  0.00    +0.241 C 
ATOM     18  O   ASP A   3      14.983 -12.755 -17.882  0.00  0.00    -0.273 OA
ATOM     19  N   THR A   4      16.443 -13.040 -19.603  0.00  0.00    -0.295 N 
ATOM     20  H   THR A   4      17.329 -13.469 -19.939  0.00  0.00    +0.150 HD
BRANCH  17  21
ATOM     21  CA  ASP A   3      16.997 -13.878 -17.356  0.00  0.00    +0.160 C 
BRANCH  21  23
ATOM     22  C   LEU A   2      19.140 -13.031 -16.544  0.00  0.00    +0.241 C 
ATOM     23  N   ASP A   3      17.800 -12.958 -16.530  0.00  0.00    -0.297 N 
ATOM     24  H   ASP A   3      17.326 -12.250 -15.934  0.00  0.00    +0.150 HD
ATOM     25  O   LEU A   2      19.791 -13.654 -17.411  0.00  0.00    -0.273 OA
BRANCH  22  26
ATOM     26  CA  LEU A   2      19.874 -12.306 -15.422  0.00  0.00    +0.149 C 
BRANCH  26  29
ATOM     27  C   LEU A   1      19.747 -13.978 -13.690  0.00  0.00    +0.238 C 
ATOM     28  O   LEU A   1      18.570 -13.719 -13.508  0.00  0.00    -0.274 OA
ATOM     29  N   LEU A   2      20.491 -13.328 -14.577  0.00  0.00    -0.297 N 
ATOM     30  H   LEU A   2      21.504 -13.544 -14.670  0.00  0.00    +0.150 HD
BRANCH  27  31
ATOM     31  CA  LEU A   1      20.436 -15.085 -12.897  0.00  0.00    +0.145 C 
BRANCH  31  32
ATOM     32  N   LEU A   1      20.112 -14.871 -11.499  0.00  0.00    -0.238 NA
ATOM     33  H   LEU A   1      19.158 -15.101 -11.155  0.00  0.00    +0.142 HD
ENDBRANCH  31  32
BRANCH  31  34
ATOM     34  CB  LEU A   1      19.842 -16.424 -13.268  0.00  0.00    +0.026 C 
BRANCH  34  35
ATOM     35  CG  LEU A   1      19.846 -16.871 -14.721  0.00  0.00    +0.002 C 
ATOM     36  CD2 LEU A   1      18.962 -18.099 -14.824  0.00  0.00    +0.000 C 
ATOM     37  CD1 LEU A   1      21.251 -17.234 -14.939  0.00  0.00    +0.000 C 
ENDBRANCH  34  35
ENDBRANCH  31  34
ENDBRANCH  27  31
ENDBRANCH  26  29
BRANCH  26  38
ATOM     38  CB  LEU A   2      20.961 -11.397 -16.015  0.00  0.00    +0.029 C 
BRANCH  38  39
ATOM     39  CG  LEU A   2      21.834 -10.669 -14.992  0.00  0.00    +0.002 C 
ATOM     40  CD2 LEU A   2      21.032  -9.671 -14.130  0.00  0.00    +0.000 C 
ATOM     41  CD1 LEU A   2      22.927  -9.929 -15.779  0.00  0.00    +0.000 C 
ENDBRANCH  38  39
ENDBRANCH  26  38
ENDBRANCH  22  26
ENDBRANCH  21  23
BRANCH  21  42
ATOM     42  CB  ASP A   3      16.210 -14.793 -16.430  0.00  0.00    +0.143 C 
BRANCH  42  43
ATOM     43  CG  ASP A   3      15.445 -15.827 -17.182  0.00  0.00    +0.367 C 
ATOM     44  OD2 ASP A   3      14.831 -16.709 -16.528  0.00  0.00    -0.246 OA
ATOM     45  OD1 ASP A   3      15.447 -15.794 -18.413  0.00  0.00    -0.246 OA
ENDBRANCH  42  43
ENDBRANCH  21  42
ENDBRANCH  17  21
ENDBRANCH  16  19
BRANCH  16  46
ATOM     46  CB  THR A   4      16.336 -11.944 -21.792  0.00  0.00    +0.137 C 
ATOM     47  CG2 THR A   4      17.541 -11.094 -21.497  0.00  0.00    +0.034 C 
BRANCH  46  48
ATOM     48  OG1 THR A   4      16.799 -13.168 -22.383  0.00  0.00    -0.382 OA
ATOM     49  HG1 THR A   4      16.024 -13.751 -22.582  0.00  0.00    +0.210 HD
ENDBRANCH  46  48
ENDBRANCH  16  46
ENDBRANCH  12  16
ENDBRANCH  11  13
ENDBRANCH   7  11
ENDBRANCH   5   8
ENDBRANCH   1   5
BRANCH   2  50
ATOM     50  CA  ASP A   7       8.639 -11.587 -17.450  0.00  0.00    +0.160 C 
BRANCH  50  51
ATOM     51  C   ASP A   7       8.918 -10.861 -16.124  0.00  0.00    +0.241 C 
ATOM     52  N   ASP A   8       9.075 -11.661 -15.060  0.00  0.00    -0.297 N 
ATOM     53  H   ASP A   8       9.245 -12.673 -15.226  0.00  0.00    +0.150 HD
ATOM     54  O   ASP A   7       8.933  -9.621 -16.063  0.00  0.00    -0.273 OA
BRANCH  52  55
ATOM     55  CA  ASP A   8       9.020 -11.185 -13.673  0.00  0.00    +0.160 C 
BRANCH  55  56
ATOM     56  C   ASP A   8      10.279 -11.667 -12.964  0.00  0.00    +0.241 C 
ATOM     57  N   THR A   9      10.470 -11.137 -11.748  0.00  0.00    -0.295 N 
ATOM     58  H   THR A   9       9.754 -10.481 -11.377  0.00  0.00    +0.150 HD
ATOM     59  O   ASP A   8      11.058 -12.462 -13.503  0.00  0.00    -0.273 OA
BRANCH  57  60
ATOM     60  CA  THR A   9      11.650 -11.440 -10.908  0.00  0.00    +0.176 C 
BRANCH  60  61
ATOM     61  C   THR A   9      11.166 -12.350  -9.800  0.00  0.00    +0.243 C 
ATOM     62  O   THR A   9      10.168 -12.022  -9.164  0.00  0.00    -0.273 OA
ATOM     63  N   VAL A  10      11.849 -13.506  -9.591  0.00  0.00    -0.297 N 
ATOM     64  H   VAL A  10      12.688 -13.734 -10.162  0.00  0.00    +0.150 HD
BRANCH  63  65
ATOM     65  CA  VAL A  10      11.388 -14.421  -8.555  0.00  0.00    +0.149 C 
BRANCH  65  66
ATOM     66  C   VAL A  10      12.591 -14.885  -7.754  0.00  0.00    +0.241 C 
ATOM     67  N   ILE A  11      12.396 -14.816  -6.443  0.00  0.00    -0.298 N 
ATOM     68  H   ILE A  11      11.445 -14.581  -6.095  0.00  0.00    +0.150 HD
ATOM     69  O   VAL A  10      13.635 -15.246  -8.289  0.00  0.00    -0.273 OA
BRANCH  67  70
ATOM     70  CA  ILE A  11      13.455 -15.055  -5.466  0.00  0.00    +0.137 C 
BRANCH  70  71
ATOM     71  CB  ILE A  11      13.769 -13.774  -4.651  0.00  0.00    +0.026 C 
ATOM     72  CG2 ILE A  11      14.883 -14.018  -3.620  0.00  0.00    +0.002 C 
BRANCH  71  73
ATOM     73  CG1 ILE A  11      14.129 -12.595  -5.568  0.00  0.00    +0.002 C 
ATOM     74  CD1 ILE A  11      15.360 -12.784  -6.459  0.00  0.00    +0.000 C 
ENDBRANCH  71  73
ENDBRANCH  70  71
BRANCH  70  75
ATOM     75  C   ILE A  11      12.976 -16.174  -4.525  0.00  0.00    +0.227 C 
ATOM     76  O   ILE A  11      11.768 -16.309  -4.264  0.00  0.00    -0.286 OA
ENDBRANCH  70  75
ENDBRANCH  67  70
ENDBRANCH  65  66
BRANCH  65  77
ATOM     77  CB  VAL A  10      10.589 -15.664  -9.103  0.00  0.00    +0.027 C 
ATOM     78  CG2 VAL A  10      10.011 -16.508  -7.957  0.00  0.00    +0.002 C 
ATOM     79  CG1 VAL A  10      11.416 -16.447  -9.997  0.00  0.00    +0.002 C 
ENDBRANCH  65  77
ENDBRANCH  63  65
ENDBRANCH  60  61
BRANCH  60  80
ATOM     80  CB  THR A   9      12.230 -10.116 -10.361  0.00  0.00    +0.137 C 
ATOM     81  CG2 THR A   9      13.350 -10.359  -9.343  0.00  0.00    +0.034 C 
BRANCH  80  82
ATOM     82  OG1 THR A   9      12.800  -9.427 -11.483  0.00  0.00    -0.382 OA
ATOM     83  HG1 THR A   9      12.094  -9.254 -12.156  0.00  0.00    +0.210 HD
ENDBRANCH  80  82
ENDBRANCH  60  80
ENDBRANCH  57  60
ENDBRANCH  55  56
BRANCH  55  84
ATOM     84  CB  ASP A   8       7.820 -11.834 -12.931  0.00  0.00    +0.143 C 
BRANCH  84  85
ATOM     85  CG  ASP A   8       6.464 -11.636 -13.649  0.00  0.00    +0.367 C 
ATOM     86  OD2 ASP A   8       5.690 -12.627 -13.745  0.00  0.00    -0.246 OA
ATOM     87  OD1 ASP A   8       6.124 -10.484 -14.050  0.00  0.00    -0.246 OA
ENDBRANCH  84  85
ENDBRANCH  55  84
ENDBRANCH  52  55
ENDBRANCH  50  51
BRANCH  50  88
ATOM     88  CB  ASP A   7       7.150 -11.845 -17.545  0.00  0.00    +0.143 C 
BRANCH  88  89
ATOM     89  CG  ASP A   7       6.711 -12.392 -18.891  0.00  0.00    +0.367 C 
ATOM     90  OD2 ASP A   7       5.604 -12.946 -18.909  0.00  0.00    -0.246 OA
ATOM     91  OD1 ASP A   7       7.392 -12.238 -19.910  0.00  0.00    -0.246 OA
ENDBRANCH  88  89
ENDBRANCH  50  88
ENDBRANCH   2  50
TORSDOF 39
REMARK  Name = ../refined-set-2016/2pk6/2pk6_pocket.pdb
REMARK  241 active torsions:
REMARK  status: ('A' for Active; 'I' for Inactive)
REMARK    1  A    between atoms: _1  and  _3
REMARK    2  A    between atoms: _3  and  _4
REMARK    3  A    between atoms: _3  and  _6
REMARK    4  A    between atoms: _6  and  _7
REMARK    5  A    between atoms: _7  and  _8
REMARK    6  A    between atoms: _8  and  _9
REMARK    7  A    between atoms: _18  and  _20
REMARK    8  A    between atoms: _20  and  _21
REMARK    9  A    between atoms: _20  and  _23
REMARK   10  A    between atoms: _23  and  _24
REMARK   11  A    between atoms: _27  and  _29
REMARK   12  A    between atoms: _29  and  _30
REMARK   13  A    between atoms: _29  and  _32
REMARK   14  A    between atoms: _32  and  _33
REMARK   15  A    between atoms: _36  and  _38
REMARK   16  A    between atoms: _38  and  _39
REMARK   17  A    between atoms: _38  and  _41
REMARK   18  A    between atoms: _41  and  _42
REMARK   19  A    between atoms: _45  and  _47
REMARK   20  A    between atoms: _47  and  _48
REMARK   21  A    between atoms: _47  and  _50
REMARK   22  A    between atoms: _50  and  _51
REMARK   23  A    between atoms: _54  and  _56
REMARK   24  A    between atoms: _56  and  _57
REMARK   25  A    between atoms: _59  and  _61
REMARK   26  A    between atoms: _61  and  _62
REMARK   27  A    between atoms: _65  and  _67
REMARK   28  A    between atoms: _67  and  _68
REMARK   29  A    between atoms: _67  and  _70
REMARK   30  A    between atoms: _70  and  _71
REMARK   31  A    between atoms: _74  and  _76
REMARK   32  A    between atoms: _76  and  _77
REMARK   33  A    between atoms: _76  and  _79
REMARK   34  A    between atoms: _79  and  _80
REMARK   35  A    between atoms: _83  and  _85
REMARK   36  A    between atoms: _85  and  _86
REMARK   37  A    between atoms: _85  and  _88
REMARK   38  A    between atoms: _88  and  _89
REMARK   39  A    between atoms: _92  and  _94
REMARK   40  A    between atoms: _94  and  _95
REMARK   41  A    between atoms: _94  and  _97
REMARK   42  A    between atoms: _100  and  _102
REMARK   43  A    between atoms: _102  and  _103
REMARK   44  A    between atoms: _102  and  _105
REMARK   45  A    between atoms: _105  and  _106
REMARK   46  A    between atoms: _109  and  _111
REMARK   47  A    between atoms: _111  and  _112
REMARK   48  A    between atoms: _111  and  _114
REMARK   49  A    between atoms: _114  and  _115
REMARK   50  A    between atoms: _115  and  _116
REMARK   51  A    between atoms: _116  and  _117
REMARK   52  A    between atoms: _117  and  _118
REMARK   53  A    between atoms: _122  and  _124
REMARK   54  A    between atoms: _124  and  _125
REMARK   55  A    between atoms: _124  and  _127
REMARK   56  A    between atoms: _127  and  _128
REMARK   57  A    between atoms: _128  and  _129
REMARK   58  A    between atoms: _131  and  _133
REMARK   59  A    between atoms: _133  and  _134
REMARK   60  A    between atoms: _133  and  _136
REMARK   61  A    between atoms: _136  and  _137
REMARK   62  A    between atoms: _140  and  _142
REMARK   63  A    between atoms: _142  and  _143
REMARK   64  A    between atoms: _145  and  _147
REMARK   65  A    between atoms: _147  and  _148
REMARK   66  A    between atoms: _150  and  _152
REMARK   67  A    between atoms: _152  and  _153
REMARK   68  A    between atoms: _152  and  _155
REMARK   69  A    between atoms: _155  and  _156
REMARK   70  A    between atoms: _159  and  _161
REMARK   71  A    between atoms: _161  and  _162
REMARK   72  A    between atoms: _164  and  _166
REMARK   73  A    between atoms: _166  and  _167
REMARK   74  A    between atoms: _169  and  _171
REMARK   75  A    between atoms: _171  and  _172
REMARK   76  A    between atoms: _171  and  _174
REMARK   77  A    between atoms: _174  and  _175
REMARK   78  A    between atoms: _181  and  _183
REMARK   79  A    between atoms: _183  and  _184
REMARK   80  A    between atoms: _183  and  _186
REMARK   81  A    between atoms: _186  and  _187
REMARK   82  A    between atoms: _190  and  _192
REMARK   83  A    between atoms: _192  and  _193
REMARK   84  A    between atoms: _192  and  _195
REMARK   85  A    between atoms: _198  and  _200
REMARK   86  A    between atoms: _200  and  _201
REMARK   87  A    between atoms: _200  and  _203
REMARK   88  A    between atoms: _203  and  _204
REMARK   89  A    between atoms: _208  and  _209
REMARK   90  A    between atoms: _214  and  _216
REMARK   91  A    between atoms: _216  and  _217
REMARK   92  A    between atoms: _216  and  _219
REMARK   93  A    between atoms: _219  and  _220
REMARK   94  A    between atoms: _224  and  _225
REMARK   95  A    between atoms: _230  and  _232
REMARK   96  A    between atoms: _232  and  _233
REMARK   97  A    between atoms: _232  and  _235
REMARK   98  A    between atoms: _238  and  _240
REMARK   99  A    between atoms: _240  and  _241
REMARK  100  A    between atoms: _240  and  _243
REMARK  101  A    between atoms: _243  and  _244
REMARK  102  A    between atoms: _249  and  _251
REMARK  103  A    between atoms: _251  and  _252
REMARK  104  A    between atoms: _251  and  _254
REMARK  105  A    between atoms: _254  and  _255
REMARK  106  A    between atoms: _258  and  _260
REMARK  107  A    between atoms: _260  and  _261
REMARK  108  A    between atoms: _260  and  _263
REMARK  109  A    between atoms: _263  and  _264
REMARK  110  A    between atoms: _267  and  _269
REMARK  111  A    between atoms: _269  and  _270
REMARK  112  A    between atoms: _272  and  _274
REMARK  113  A    between atoms: _274  and  _275
REMARK  114  A    between atoms: _274  and  _277
REMARK  115  A    between atoms: _277  and  _278
REMARK  116  A    between atoms: _278  and  _279
REMARK  117  A    between atoms: _279  and  _280
REMARK  118  A    between atoms: _289  and  _291
REMARK  119  A    between atoms: _291  and  _292
REMARK  120  A    between atoms: _291  and  _294
REMARK  121  A    between atoms: _294  and  _295
REMARK  122  A    between atoms: _300  and  _302
REMARK  123  A    between atoms: _302  and  _303
REMARK  124  A    between atoms: _302  and  _305
REMARK  125  A    between atoms: _305  and  _306
REMARK  126  A    between atoms: _306  and  _307
REMARK  127  A    between atoms: _307  and  _308
REMARK  128  A    between atoms: _317  and  _319
REMARK  129  A    between atoms: _319  and  _320
REMARK  130  A    between atoms: _319  and  _322
REMARK  131  A    between atoms: _322  and  _323
REMARK  132  A    between atoms: _326  and  _328
REMARK  133  A    between atoms: _328  and  _329
REMARK  134  A    between atoms: _328  and  _331
REMARK  135  A    between atoms: _331  and  _332
REMARK  136  A    between atoms: _335  and  _337
REMARK  137  A    between atoms: _337  and  _338
REMARK  138  A    between atoms: _337  and  _340
REMARK  139  A    between atoms: _340  and  _341
REMARK  140  A    between atoms: _344  and  _346
REMARK  141  A    between atoms: _346  and  _347
REMARK  142  A    between atoms: _346  and  _349
REMARK  143  A    between atoms: _349  and  _350
REMARK  144  A    between atoms: _353  and  _355
REMARK  145  A    between atoms: _355  and  _356
REMARK  146  A    between atoms: _355  and  _358
REMARK  147  A    between atoms: _358  and  _359
REMARK  148  A    between atoms: _362  and  _364
REMARK  149  A    between atoms: _364  and  _365
REMARK  150  A    between atoms: _367  and  _369
REMARK  151  A    between atoms: _369  and  _370
REMARK  152  A    between atoms: _373  and  _375
REMARK  153  A    between atoms: _375  and  _376
REMARK  154  A    between atoms: _375  and  _378
REMARK  155  A    between atoms: _378  and  _379
REMARK  156  A    between atoms: _382  and  _384
REMARK  157  A    between atoms: _384  and  _385
REMARK  158  A    between atoms: _384  and  _387
REMARK  159  A    between atoms: _387  and  _388
REMARK  160  A    between atoms: _391  and  _393
REMARK  161  A    between atoms: _393  and  _394
REMARK  162  A    between atoms: _393  and  _396
REMARK  163  A    between atoms: _396  and  _397
REMARK  164  A    between atoms: _400  and  _402
REMARK  165  A    between atoms: _402  and  _403
REMARK  166  A    between atoms: _402  and  _405
REMARK  167  A    between atoms: _408  and  _410
REMARK  168  A    between atoms: _410  and  _411
REMARK  169  A    between atoms: _410  and  _413
REMARK  170  A    between atoms: _413  and  _414
REMARK  171  A    between atoms: _414  and  _415
REMARK  172  A    between atoms: _415  and  _416
REMARK  173  A    between atoms: _416  and  _417
REMARK  174  A    between atoms: _421  and  _423
REMARK  175  A    between atoms: _423  and  _424
REMARK  176  A    between atoms: _423  and  _426
REMARK  177  A    between atoms: _426  and  _427
REMARK  178  A    between atoms: _427  and  _428
REMARK  179  A    between atoms: _430  and  _432
REMARK  180  A    between atoms: _432  and  _433
REMARK  181  A    between atoms: _432  and  _435
REMARK  182  A    between atoms: _435  and  _436
REMARK  183  A    between atoms: _439  and  _441
REMARK  184  A    between atoms: _441  and  _442
REMARK  185  A    between atoms: _444  and  _446
REMARK  186  A    between atoms: _446  and  _447
REMARK  187  A    between atoms: _449  and  _451
REMARK  188  A    between atoms: _451  and  _452
REMARK  189  A    between atoms: _451  and  _454
REMARK  190  A    between atoms: _454  and  _455
REMARK  191  A    between atoms: _458  and  _460
REMARK  192  A    between atoms: _460  and  _461
REMARK  193  A    between atoms: _463  and  _465
REMARK  194  A    between atoms: _465  and  _466
REMARK  195  A    between atoms: _468  and  _470
REMARK  196  A    between atoms: _470  and  _471
REMARK  197  A    between atoms: _470  and  _473
REMARK  198  A    between atoms: _473  and  _474
REMARK  199  A    between atoms: _480  and  _482
REMARK  200  A    between atoms: _482  and  _483
REMARK  201  A    between atoms: _482  and  _485
REMARK  202  A    between atoms: _485  and  _486
REMARK  203  A    between atoms: _489  and  _491
REMARK  204  A    between atoms: _491  and  _492
REMARK  205  A    between atoms: _491  and  _494
REMARK  206  A    between atoms: _497  and  _499
REMARK  207  A    between atoms: _499  and  _500
REMARK  208  A    between atoms: _499  and  _502
REMARK  209  A    between atoms: _502  and  _503
REMARK  210  A    between atoms: _506  and  _508
REMARK  211  A    between atoms: _508  and  _509
REMARK  212  A    between atoms: _508  and  _511
REMARK  213  A    between atoms: _511  and  _512
REMARK  214  A    between atoms: _516  and  _517
REMARK  215  A    between atoms: _522  and  _524
REMARK  216  A    between atoms: _524  and  _525
REMARK  217  A    between atoms: _524  and  _527
REMARK  218  A    between atoms: _530  and  _532
REMARK  219  A    between atoms: _532  and  _533
REMARK  220  A    between atoms: _532  and  _535
REMARK  221  A    between atoms: _535  and  _536
REMARK  222  A    between atoms: _541  and  _543
REMARK  223  A    between atoms: _543  and  _544
REMARK  224  A    between atoms: _543  and  _546
REMARK  225  A    between atoms: _546  and  _547
REMARK  226  A    between atoms: _550  and  _552
REMARK  227  A    between atoms: _552  and  _553
REMARK  228  A    between atoms: _552  and  _555
REMARK  229  A    between atoms: _555  and  _556
REMARK  230  A    between atoms: _559  and  _561
REMARK  231  A    between atoms: _561  and  _562
REMARK  232  A    between atoms: _564  and  _566
REMARK  233  A    between atoms: _566  and  _567
REMARK  234  A    between atoms: _566  and  _569
REMARK  235  A    between atoms: _569  and  _570
REMARK  236  A    between atoms: _570  and  _571
REMARK  237  A    between atoms: _571  and  _572
REMARK  238  A    between atoms: _581  and  _583
REMARK  239  A    between atoms: _583  and  _584
REMARK  240  A    between atoms: _583  and  _586
REMARK  241  A    between atoms: _586  and  _587
REMARK                            x       y       z     vdW  Elec       q    Type
REMARK                         _______ _______ _______ _____ _____    ______ ____
ROOT
ATOM      1  C   GLY A   5       7.675 -23.433 -17.808  0.00  0.00    +0.243 C 
ATOM      2  O   GLY A   5       6.760 -24.203 -17.864  0.00  0.00    -0.273 OA
ATOM      3  N   ILE A   6       8.935 -23.809 -18.045  0.00  0.00    -0.297 N 
ATOM      4  H   ILE A   6       9.722 -23.131 -17.989  0.00  0.00    +0.150 HD
ENDROOT
BRANCH   3   5
ATOM      5  CA  ILE A   6       9.160 -25.204 -18.384  0.00  0.00    +0.149 C 
BRANCH   5   6
ATOM      6  C   ILE A   6       8.815 -26.025 -17.168  0.00  0.00    +0.241 C 
ATOM      7  O   ILE A   6       9.172 -25.662 -16.076  0.00  0.00    -0.273 OA
ATOM      8  N   GLY A   7       8.019 -27.060 -17.330  0.00  0.00    -0.295 N 
ATOM      9  H   GLY A   7       7.598 -27.265 -18.259  0.00  0.00    +0.150 HD
BRANCH   8  10
ATOM     10  CA  GLY A   7       7.741 -27.905 -16.193  0.00  0.00    +0.176 C 
BRANCH  10  11
ATOM     11  C   GLY A   7       6.438 -27.507 -15.570  0.00  0.00    +0.243 C 
ATOM     12  O   GLY A   7       5.928 -28.255 -14.726  0.00  0.00    -0.273 OA
ATOM     13  N   GLY A   8       5.860 -26.366 -15.963  0.00  0.00    -0.295 N 
ATOM     14  H   GLY A   8       6.338 -25.749 -16.650  0.00  0.00    +0.150 HD
BRANCH  13  15
ATOM     15  CA  GLY A   8       4.555 -25.990 -15.424  0.00  0.00    +0.176 C 
BRANCH  15  16
ATOM     16  C   GLY A   8       4.600 -24.773 -14.527  0.00  0.00    +0.243 C 
ATOM     17  N   PHE A   9       3.645 -24.725 -13.591  0.00  0.00    -0.297 N 
ATOM     18  H   PHE A   9       3.030 -25.551 -13.448  0.00  0.00    +0.150 HD
ATOM     19  O   GLY A   8       5.471 -23.901 -14.669  0.00  0.00    -0.273 OA
BRANCH  17  20
ATOM     20  CA  PHE A   9       3.448 -23.531 -12.762  0.00  0.00    +0.153 C 
BRANCH  20  21
ATOM     21  C   PHE A   9       3.832 -23.755 -11.303  0.00  0.00    +0.241 C 
ATOM     22  N   ILE A  10       4.231 -22.645 -10.680  0.00  0.00    -0.298 N 
ATOM     23  H   ILE A  10       4.446 -21.793 -11.236  0.00  0.00    +0.150 HD
ATOM     24  O   PHE A   9       3.739 -24.888 -10.775  0.00  0.00    -0.273 OA
BRANCH  22  25
ATOM     25  CA  ILE A  10       4.370 -22.613  -9.222  0.00  0.00    +0.137 C 
BRANCH  25  26
ATOM     26  C   ILE A  10       3.643 -21.401  -8.647  0.00  0.00    +0.227 C 
ATOM     27  O   ILE A  10       3.400 -20.385  -9.329  0.00  0.00    -0.286 OA
ENDBRANCH  25  26
BRANCH  25  28
ATOM     28  CB  ILE A  10       5.844 -22.537  -8.750  0.00  0.00    +0.026 C 
ATOM     29  CG2 ILE A  10       6.529 -23.800  -9.122  0.00  0.00    +0.002 C 
BRANCH  28  30
ATOM     30  CG1 ILE A  10       6.574 -21.312  -9.321  0.00  0.00    +0.002 C 
ATOM     31  CD1 ILE A  10       7.930 -21.046  -8.634  0.00  0.00    +0.000 C 
ENDBRANCH  28  30
ENDBRANCH  25  28
ENDBRANCH  22  25
ENDBRANCH  20  21
BRANCH  20  32
ATOM     32  CB  PHE A   9       1.958 -23.113 -12.774  0.00  0.00    +0.055 C 
BRANCH  32  33
ATOM     33  CG  PHE A   9       1.498 -22.530 -14.099  0.00  0.00    -0.020 A 
ATOM     34  CD2 PHE A   9       1.306 -21.166 -14.236  0.00  0.00    -0.004 A 
ATOM     35  CE2 PHE A   9       0.927 -20.581 -15.448  0.00  0.00    -0.000 A 
ATOM     36  CZ  PHE A   9       0.708 -21.390 -16.530  0.00  0.00    -0.000 A 
ATOM     37  CE1 PHE A   9       0.919 -22.786 -16.425  0.00  0.00    -0.000 A 
ATOM     38  CD1 PHE A   9       1.286 -23.349 -15.203  0.00  0.00    -0.004 A 
ENDBRANCH  32  33
ENDBRANCH  20  32
ENDBRANCH  17  20
ENDBRANCH  15  16
ENDBRANCH  13  15
ENDBRANCH  10  11
ENDBRANCH   8  10
ENDBRANCH   5   6
BRANCH   5  39
ATOM     39  CB  ILE A   6      10.542 -25.461 -18.965  0.00  0.00    +0.027 C 
ATOM     40  CG2 ILE A   6      11.051 -26.952 -18.647  0.00  0.00    +0.002 C 
BRANCH  39  41
ATOM     41  CG1 ILE A   6      10.314 -25.266 -20.485  0.00  0.00    +0.002 C 
ATOM     42  CD1 ILE A   6      11.408 -25.252 -21.335  0.00  0.00    +0.000 C 
ENDBRANCH  39  41
ENDBRANCH   5  39
ENDBRANCH   3   5
BRANCH   1  43
ATOM     43  CA  GLY A   5       7.415 -21.985 -17.540  0.00  0.00    +0.176 C 
BRANCH  43  45
ATOM     44  C   GLY A   4       5.747 -20.710 -16.372  0.00  0.00    +0.243 C 
ATOM     45  N   GLY A   5       6.334 -21.881 -16.561  0.00  0.00    -0.295 N 
ATOM     46  H   GLY A   5       6.030 -22.716 -16.020  0.00  0.00    +0.150 HD
ATOM     47  O   GLY A   4       6.097 -19.664 -16.911  0.00  0.00    -0.273 OA
BRANCH  44  48
ATOM     48  CA  GLY A   4       4.574 -20.769 -15.450  0.00  0.00    +0.176 C 
BRANCH  48  51
ATOM     49  C   ILE A   3       4.262 -19.606 -13.345  0.00  0.00    +0.241 C 
ATOM     50  O   ILE A   3       4.468 -20.630 -12.667  0.00  0.00    -0.273 OA
ATOM     51  N   GLY A   4       4.383 -19.548 -14.677  0.00  0.00    -0.295 N 
ATOM     52  H   GLY A   4       4.341 -18.629 -15.162  0.00  0.00    +0.150 HD
BRANCH  49  53
ATOM     53  CA  ILE A   3       3.834 -18.294 -12.684  0.00  0.00    +0.149 C 
BRANCH  53  55
ATOM     54  C   MET A   2       1.781 -17.965 -11.477  0.00  0.00    +0.241 C 
ATOM     55  N   ILE A   3       2.974 -18.562 -11.545  0.00  0.00    -0.297 N 
ATOM     56  H   ILE A   3       3.283 -19.210 -10.792  0.00  0.00    +0.150 HD
ATOM     57  O   MET A   2       1.360 -17.159 -12.336  0.00  0.00    -0.273 OA
BRANCH  54  58
ATOM     58  CA  MET A   2       0.885 -18.383 -10.335  0.00  0.00    +0.149 C 
BRANCH  58  61
ATOM     59  C   LYS A   1       0.706 -16.765  -8.520  0.00  0.00    +0.238 C 
ATOM     60  O   LYS A   1       1.474 -17.425  -7.782  0.00  0.00    -0.274 OA
ATOM     61  N   MET A   2       0.291 -17.205  -9.713  0.00  0.00    -0.297 N 
ATOM     62  H   MET A   2      -0.470 -16.697 -10.207  0.00  0.00    +0.150 HD
BRANCH  59  63
ATOM     63  CA  LYS A   1       0.222 -15.390  -8.088  0.00  0.00    +0.145 C 
BRANCH  63  64
ATOM     64  N   LYS A   1       0.112 -15.410  -6.644  0.00  0.00    -0.238 NA
ATOM     65  H   LYS A   1       0.750 -16.034  -6.110  0.00  0.00    +0.142 HD
ENDBRANCH  63  64
BRANCH  63  66
ATOM     66  CB  LYS A   1       1.236 -14.335  -8.545  0.00  0.00    +0.026 C 
BRANCH  66  67
ATOM     67  CG  LYS A   1       1.268 -14.061 -10.034  0.00  0.00    -0.000 C 
BRANCH  67  68
ATOM     68  CD  LYS A   1       2.381 -13.007 -10.217  0.00  0.00    -0.024 C 
BRANCH  68  69
ATOM     69  CE  LYS A   1       2.856 -12.821 -11.646  0.00  0.00    -0.086 C 
BRANCH  69  70
ATOM     70  NZ  LYS A   1       1.743 -12.511 -12.517  0.00  0.00    +0.380 N 
ATOM     71  HZ1 LYS A   1       1.287 -11.633 -12.196  0.00  0.00    -0.089 HD
ATOM     72  HZ2 LYS A   1       1.055 -13.290 -12.489  0.00  0.00    -0.089 HD
ATOM     73  HZ3 LYS A   1       2.090 -12.388 -13.490  0.00  0.00    -0.089 HD
ENDBRANCH  69  70
ENDBRANCH  68  69
ENDBRANCH  67  68
ENDBRANCH  66  67
ENDBRANCH  63  66
ENDBRANCH  59  63
ENDBRANCH  58  61
BRANCH  58  74
ATOM     74  CB  MET A   2      -0.209 -19.300 -10.875  0.00  0.00    +0.041 C 
BRANCH  74  75
ATOM     75  CG  MET A   2      -0.923 -20.034  -9.797  0.00  0.00    +0.060 C 
BRANCH  75  76
ATOM     76  SD  MET A   2      -0.084 -21.585  -9.359  0.00  0.00    -0.139 S 
ATOM     77  CE  MET A   2      -0.975 -22.709 -10.459  0.00  0.00    +0.069 C 
ENDBRANCH  75  76
ENDBRANCH  74  75
ENDBRANCH  58  74
ENDBRANCH  54  58
ENDBRANCH  53  55
BRANCH  53  78
ATOM     78  CB  ILE A   3       5.105 -17.491 -12.311  0.00  0.00    +0.027 C 
ATOM     79  CG2 ILE A   3       4.746 -16.057 -11.941  0.00  0.00    +0.002 C 
BRANCH  78  80
ATOM     80  CG1 ILE A   3       5.881 -18.156 -11.164  0.00  0.00    +0.002 C 
ATOM     81  CD1 ILE A   3       7.279 -17.502 -10.839  0.00  0.00    +0.000 C 
ENDBRANCH  78  80
ENDBRANCH  53  78
ENDBRANCH  49  53
ENDBRANCH  48  51
ENDBRANCH  44  48
ENDBRANCH  43  45
ENDBRANCH   1  43
TORSDOF 36
REMARK  Name = ../refined-set-2016/2pk6/2pk6_pocket.pdb
REMARK  241 active torsions:
REMARK  status: ('A' for Active; 'I' for Inactive)
REMARK    1  A    between atoms: _1  and  _3
REMARK    2  A    between atoms: _3  and  _4
REMARK    3  A    between atoms: _3  and  _6
REMARK    4  A    between atoms: _6  and  _7
REMARK    5  A    between atoms: _7  and  _8
REMARK    6  A    between atoms: _8  and  _9
REMARK    7  A    between atoms: _18  and  _20
REMARK    8  A    between atoms: _20  and  _21
REMARK    9  A    between atoms: _20  and  _23
REMARK   10  A    between atoms: _23  and  _24
REMARK   11  A    between atoms: _27  and  _29
REMARK   12  A    between atoms: _29  and  _30
REMARK   13  A    between atoms: _29  and  _32
REMARK   14  A    between atoms: _32  and  _33
REMARK   15  A    between atoms: _36  and  _38
REMARK   16  A    between atoms: _38  and  _39
REMARK   17  A    between atoms: _38  and  _41
REMARK   18  A    between atoms: _41  and  _42
REMARK   19  A    between atoms: _45  and  _47
REMARK   20  A    between atoms: _47  and  _48
REMARK   21  A    between atoms: _47  and  _50
REMARK   22  A    between atoms: _50  and  _51
REMARK   23  A    between atoms: _54  and  _56
REMARK   24  A    between atoms: _56  and  _57
REMARK   25  A    between atoms: _59  and  _61
REMARK   26  A    between atoms: _61  and  _62
REMARK   27  A    between atoms: _65  and  _67
REMARK   28  A    between atoms: _67  and  _68
REMARK   29  A    between atoms: _67  and  _70
REMARK   30  A    between atoms: _70  and  _71
REMARK   31  A    between atoms: _74  and  _76
REMARK   32  A    between atoms: _76  and  _77
REMARK   33  A    between atoms: _76  and  _79
REMARK   34  A    between atoms: _79  and  _80
REMARK   35  A    between atoms: _83  and  _85
REMARK   36  A    between atoms: _85  and  _86
REMARK   37  A    between atoms: _85  and  _88
REMARK   38  A    between atoms: _88  and  _89
REMARK   39  A    between atoms: _92  and  _94
REMARK   40  A    between atoms: _94  and  _95
REMARK   41  A    between atoms: _94  and  _97
REMARK   42  A    between atoms: _100  and  _102
REMARK   43  A    between atoms: _102  and  _103
REMARK   44  A    between atoms: _102  and  _105
REMARK   45  A    between atoms: _105  and  _106
REMARK   46  A    between atoms: _109  and  _111
REMARK   47  A    between atoms: _111  and  _112
REMARK   48  A    between atoms: _111  and  _114
REMARK   49  A    between atoms: _114  and  _115
REMARK   50  A    between atoms: _115  and  _116
REMARK   51  A    between atoms: _116  and  _117
REMARK   52  A    between atoms: _117  and  _118
REMARK   53  A    between atoms: _122  and  _124
REMARK   54  A    between atoms: _124  and  _125
REMARK   55  A    between atoms: _124  and  _127
REMARK   56  A    between atoms: _127  and  _128
REMARK   57  A    between atoms: _128  and  _129
REMARK   58  A    between atoms: _131  and  _133
REMARK   59  A    between atoms: _133  and  _134
REMARK   60  A    between atoms: _133  and  _136
REMARK   61  A    between atoms: _136  and  _137
REMARK   62  A    between atoms: _140  and  _142
REMARK   63  A    between atoms: _142  and  _143
REMARK   64  A    between atoms: _145  and  _147
REMARK   65  A    between atoms: _147  and  _148
REMARK   66  A    between atoms: _150  and  _152
REMARK   67  A    between atoms: _152  and  _153
REMARK   68  A    between atoms: _152  and  _155
REMARK   69  A    between atoms: _155  and  _156
REMARK   70  A    between atoms: _159  and  _161
REMARK   71  A    between atoms: _161  and  _162
REMARK   72  A    between atoms: _164  and  _166
REMARK   73  A    between atoms: _166  and  _167
REMARK   74  A    between atoms: _169  and  _171
REMARK   75  A    between atoms: _171  and  _172
REMARK   76  A    between atoms: _171  and  _174
REMARK   77  A    between atoms: _174  and  _175
REMARK   78  A    between atoms: _181  and  _183
REMARK   79  A    between atoms: _183  and  _184
REMARK   80  A    between atoms: _183  and  _186
REMARK   81  A    between atoms: _186  and  _187
REMARK   82  A    between atoms: _190  and  _192
REMARK   83  A    between atoms: _192  and  _193
REMARK   84  A    between atoms: _192  and  _195
REMARK   85  A    between atoms: _198  and  _200
REMARK   86  A    between atoms: _200  and  _201
REMARK   87  A    between atoms: _200  and  _203
REMARK   88  A    between atoms: _203  and  _204
REMARK   89  A    between atoms: _208  and  _209
REMARK   90  A    between atoms: _214  and  _216
REMARK   91  A    between atoms: _216  and  _217
REMARK   92  A    between atoms: _216  and  _219
REMARK   93  A    between atoms: _219  and  _220
REMARK   94  A    between atoms: _224  and  _225
REMARK   95  A    between atoms: _230  and  _232
REMARK   96  A    between atoms: _232  and  _233
REMARK   97  A    between atoms: _232  and  _235
REMARK   98  A    between atoms: _238  and  _240
REMARK   99  A    between atoms: _240  and  _241
REMARK  100  A    between atoms: _240  and  _243
REMARK  101  A    between atoms: _243  and  _244
REMARK  102  A    between atoms: _249  and  _251
REMARK  103  A    between atoms: _251  and  _252
REMARK  104  A    between atoms: _251  and  _254
REMARK  105  A    between atoms: _254  and  _255
REMARK  106  A    between atoms: _258  and  _260
REMARK  107  A    between atoms: _260  and  _261
REMARK  108  A    between atoms: _260  and  _263
REMARK  109  A    between atoms: _263  and  _264
REMARK  110  A    between atoms: _267  and  _269
REMARK  111  A    between atoms: _269  and  _270
REMARK  112  A    between atoms: _272  and  _274
REMARK  113  A    between atoms: _274  and  _275
REMARK  114  A    between atoms: _274  and  _277
REMARK  115  A    between atoms: _277  and  _278
REMARK  116  A    between atoms: _278  and  _279
REMARK  117  A    between atoms: _279  and  _280
REMARK  118  A    between atoms: _289  and  _291
REMARK  119  A    between atoms: _291  and  _292
REMARK  120  A    between atoms: _291  and  _294
REMARK  121  A    between atoms: _294  and  _295
REMARK  122  A    between atoms: _300  and  _302
REMARK  123  A    between atoms: _302  and  _303
REMARK  124  A    between atoms: _302  and  _305
REMARK  125  A    between atoms: _305  and  _306
REMARK  126  A    between atoms: _306  and  _307
REMARK  127  A    between atoms: _307  and  _308
REMARK  128  A    between atoms: _317  and  _319
REMARK  129  A    between atoms: _319  and  _320
REMARK  130  A    between atoms: _319  and  _322
REMARK  131  A    between atoms: _322  and  _323
REMARK  132  A    between atoms: _326  and  _328
REMARK  133  A    between atoms: _328  and  _329
REMARK  134  A    between atoms: _328  and  _331
REMARK  135  A    between atoms: _331  and  _332
REMARK  136  A    between atoms: _335  and  _337
REMARK  137  A    between atoms: _337  and  _338
REMARK  138  A    between atoms: _337  and  _340
REMARK  139  A    between atoms: _340  and  _341
REMARK  140  A    between atoms: _344  and  _346
REMARK  141  A    between atoms: _346  and  _347
REMARK  142  A    between atoms: _346  and  _349
REMARK  143  A    between atoms: _349  and  _350
REMARK  144  A    between atoms: _353  and  _355
REMARK  145  A    between atoms: _355  and  _356
REMARK  146  A    between atoms: _355  and  _358
REMARK  147  A    between atoms: _358  and  _359
REMARK  148  A    between atoms: _362  and  _364
REMARK  149  A    between atoms: _364  and  _365
REMARK  150  A    between atoms: _367  and  _369
REMARK  151  A    between atoms: _369  and  _370
REMARK  152  A    between atoms: _373  and  _375
REMARK  153  A    between atoms: _375  and  _376
REMARK  154  A    between atoms: _375  and  _378
REMARK  155  A    between atoms: _378  and  _379
REMARK  156  A    between atoms: _382  and  _384
REMARK  157  A    between atoms: _384  and  _385
REMARK  158  A    between atoms: _384  and  _387
REMARK  159  A    between atoms: _387  and  _388
REMARK  160  A    between atoms: _391  and  _393
REMARK  161  A    between atoms: _393  and  _394
REMARK  162  A    between atoms: _393  and  _396
REMARK  163  A    between atoms: _396  and  _397
REMARK  164  A    between atoms: _400  and  _402
REMARK  165  A    between atoms: _402  and  _403
REMARK  166  A    between atoms: _402  and  _405
REMARK  167  A    between atoms: _408  and  _410
REMARK  168  A    between atoms: _410  and  _411
REMARK  169  A    between atoms: _410  and  _413
REMARK  170  A    between atoms: _413  and  _414
REMARK  171  A    between atoms: _414  and  _415
REMARK  172  A    between atoms: _415  and  _416
REMARK  173  A    between atoms: _416  and  _417
REMARK  174  A    between atoms: _421  and  _423
REMARK  175  A    between atoms: _423  and  _424
REMARK  176  A    between atoms: _423  and  _426
REMARK  177  A    between atoms: _426  and  _427
REMARK  178  A    between atoms: _427  and  _428
REMARK  179  A    between atoms: _430  and  _432
REMARK  180  A    between atoms: _432  and  _433
REMARK  181  A    between atoms: _432  and  _435
REMARK  182  A    between atoms: _435  and  _436
REMARK  183  A    between atoms: _439  and  _441
REMARK  184  A    between atoms: _441  and  _442
REMARK  185  A    between atoms: _444  and  _446
REMARK  186  A    between atoms: _446  and  _447
REMARK  187  A    between atoms: _449  and  _451
REMARK  188  A    between atoms: _451  and  _452
REMARK  189  A    between atoms: _451  and  _454
REMARK  190  A    between atoms: _454  and  _455
REMARK  191  A    between atoms: _458  and  _460
REMARK  192  A    between atoms: _460  and  _461
REMARK  193  A    between atoms: _463  and  _465
REMARK  194  A    between atoms: _465  and  _466
REMARK  195  A    between atoms: _468  and  _470
REMARK  196  A    between atoms: _470  and  _471
REMARK  197  A    between atoms: _470  and  _473
REMARK  198  A    between atoms: _473  and  _474
REMARK  199  A    between atoms: _480  and  _482
REMARK  200  A    between atoms: _482  and  _483
REMARK  201  A    between atoms: _482  and  _485
REMARK  202  A    between atoms: _485  and  _486
REMARK  203  A    between atoms: _489  and  _491
REMARK  204  A    between atoms: _491  and  _492
REMARK  205  A    between atoms: _491  and  _494
REMARK  206  A    between atoms: _497  and  _499
REMARK  207  A    between atoms: _499  and  _500
REMARK  208  A    between atoms: _499  and  _502
REMARK  209  A    between atoms: _502  and  _503
REMARK  210  A    between atoms: _506  and  _508
REMARK  211  A    between atoms: _508  and  _509
REMARK  212  A    between atoms: _508  and  _511
REMARK  213  A    between atoms: _511  and  _512
REMARK  214  A    between atoms: _516  and  _517
REMARK  215  A    between atoms: _522  and  _524
REMARK  216  A    between atoms: _524  and  _525
REMARK  217  A    between atoms: _524  and  _527
REMARK  218  A    between atoms: _530  and  _532
REMARK  219  A    between atoms: _532  and  _533
REMARK  220  A    between atoms: _532  and  _535
REMARK  221  A    between atoms: _535  and  _536
REMARK  222  A    between atoms: _541  and  _543
REMARK  223  A    between atoms: _543  and  _544
REMARK  224  A    between atoms: _543  and  _546
REMARK  225  A    between atoms: _546  and  _547
REMARK  226  A    between atoms: _550  and  _552
REMARK  227  A    between atoms: _552  and  _553
REMARK  228  A    between atoms: _552  and  _555
REMARK  229  A    between atoms: _555  and  _556
REMARK  230  A    between atoms: _559  and  _561
REMARK  231  A    between atoms: _561  and  _562
REMARK  232  A    between atoms: _564  and  _566
REMARK  233  A    between atoms: _566  and  _567
REMARK  234  A    between atoms: _566  and  _569
REMARK  235  A    between atoms: _569  and  _570
REMARK  236  A    between atoms: _570  and  _571
REMARK  237  A    between atoms: _571  and  _572
REMARK  238  A    between atoms: _581  and  _583
REMARK  239  A    between atoms: _583  and  _584
REMARK  240  A    between atoms: _583  and  _586
REMARK  241  A    between atoms: _586  and  _587
REMARK                            x       y       z     vdW  Elec       q    Type
REMARK                         _______ _______ _______ _____ _____    ______ ____
ROOT
ATOM      1  CA  VAL A   1       4.441 -17.348  -5.380  0.00  0.00    +0.133 C 
ENDROOT
BRANCH   1   2
ATOM      2  CB  VAL A   1       5.417 -16.747  -6.415  0.00  0.00    +0.023 C 
ATOM      3  CG2 VAL A   1       6.250 -17.897  -7.051  0.00  0.00    +0.002 C 
ATOM      4  CG1 VAL A   1       4.623 -16.021  -7.527  0.00  0.00    +0.002 C 
ENDBRANCH   1   2
BRANCH   1   5
ATOM      5  N   VAL A   1       3.504 -18.277  -6.004  0.00  0.00    -0.239 NA
ATOM      6  H   VAL A   1       2.694 -17.900  -6.537  0.00  0.00    +0.142 HD
ENDBRANCH   1   5
BRANCH   1   7
ATOM      7  C   VAL A   1       3.655 -16.225  -4.718  0.00  0.00    +0.224 C 
ATOM      8  O   VAL A   1       2.418 -16.102  -4.932  0.00  0.00    -0.287 OA
ENDBRANCH   1   7
TORSDOF 3
REMARK  Name = ../refined-set-2016/2pk6/2pk6_pocket.pdb
REMARK  241 active torsions:
REMARK  status: ('A' for Active; 'I' for Inactive)
REMARK    1  A    between atoms: _1  and  _3
REMARK    2  A    between atoms: _3  and  _4
REMARK    3  A    between atoms: _3  and  _6
REMARK    4  A    between atoms: _6  and  _7
REMARK    5  A    between atoms: _7  and  _8
REMARK    6  A    between atoms: _8  and  _9
REMARK    7  A    between atoms: _18  and  _20
REMARK    8  A    between atoms: _20  and  _21
REMARK    9  A    between atoms: _20  and  _23
REMARK   10  A    between atoms: _23  and  _24
REMARK   11  A    between atoms: _27  and  _29
REMARK   12  A    between atoms: _29  and  _30
REMARK   13  A    between atoms: _29  and  _32
REMARK   14  A    between atoms: _32  and  _33
REMARK   15  A    between atoms: _36  and  _38
REMARK   16  A    between atoms: _38  and  _39
REMARK   17  A    between atoms: _38  and  _41
REMARK   18  A    between atoms: _41  and  _42
REMARK   19  A    between atoms: _45  and  _47
REMARK   20  A    between atoms: _47  and  _48
REMARK   21  A    between atoms: _47  and  _50
REMARK   22  A    between atoms: _50  and  _51
REMARK   23  A    between atoms: _54  and  _56
REMARK   24  A    between atoms: _56  and  _57
REMARK   25  A    between atoms: _59  and  _61
REMARK   26  A    between atoms: _61  and  _62
REMARK   27  A    between atoms: _65  and  _67
REMARK   28  A    between atoms: _67  and  _68
REMARK   29  A    between atoms: _67  and  _70
REMARK   30  A    between atoms: _70  and  _71
REMARK   31  A    between atoms: _74  and  _76
REMARK   32  A    between atoms: _76  and  _77
REMARK   33  A    between atoms: _76  and  _79
REMARK   34  A    between atoms: _79  and  _80
REMARK   35  A    between atoms: _83  and  _85
REMARK   36  A    between atoms: _85  and  _86
REMARK   37  A    between atoms: _85  and  _88
REMARK   38  A    between atoms: _88  and  _89
REMARK   39  A    between atoms: _92  and  _94
REMARK   40  A    between atoms: _94  and  _95
REMARK   41  A    between atoms: _94  and  _97
REMARK   42  A    between atoms: _100  and  _102
REMARK   43  A    between atoms: _102  and  _103
REMARK   44  A    between atoms: _102  and  _105
REMARK   45  A    between atoms: _105  and  _106
REMARK   46  A    between atoms: _109  and  _111
REMARK   47  A    between atoms: _111  and  _112
REMARK   48  A    between atoms: _111  and  _114
REMARK   49  A    between atoms: _114  and  _115
REMARK   50  A    between atoms: _115  and  _116
REMARK   51  A    between atoms: _116  and  _117
REMARK   52  A    between atoms: _117  and  _118
REMARK   53  A    between atoms: _122  and  _124
REMARK   54  A    between atoms: _124  and  _125
REMARK   55  A    between atoms: _124  and  _127
REMARK   56  A    between atoms: _127  and  _128
REMARK   57  A    between atoms: _128  and  _129
REMARK   58  A    between atoms: _131  and  _133
REMARK   59  A    between atoms: _133  and  _134
REMARK   60  A    between atoms: _133  and  _136
REMARK   61  A    between atoms: _136  and  _137
REMARK   62  A    between atoms: _140  and  _142
REMARK   63  A    between atoms: _142  and  _143
REMARK   64  A    between atoms: _145  and  _147
REMARK   65  A    between atoms: _147  and  _148
REMARK   66  A    between atoms: _150  and  _152
REMARK   67  A    between atoms: _152  and  _153
REMARK   68  A    between atoms: _152  and  _155
REMARK   69  A    between atoms: _155  and  _156
REMARK   70  A    between atoms: _159  and  _161
REMARK   71  A    between atoms: _161  and  _162
REMARK   72  A    between atoms: _164  and  _166
REMARK   73  A    between atoms: _166  and  _167
REMARK   74  A    between atoms: _169  and  _171
REMARK   75  A    between atoms: _171  and  _172
REMARK   76  A    between atoms: _171  and  _174
REMARK   77  A    between atoms: _174  and  _175
REMARK   78  A    between atoms: _181  and  _183
REMARK   79  A    between atoms: _183  and  _184
REMARK   80  A    between atoms: _183  and  _186
REMARK   81  A    between atoms: _186  and  _187
REMARK   82  A    between atoms: _190  and  _192
REMARK   83  A    between atoms: _192  and  _193
REMARK   84  A    between atoms: _192  and  _195
REMARK   85  A    between atoms: _198  and  _200
REMARK   86  A    between atoms: _200  and  _201
REMARK   87  A    between atoms: _200  and  _203
REMARK   88  A    between atoms: _203  and  _204
REMARK   89  A    between atoms: _208  and  _209
REMARK   90  A    between atoms: _214  and  _216
REMARK   91  A    between atoms: _216  and  _217
REMARK   92  A    between atoms: _216  and  _219
REMARK   93  A    between atoms: _219  and  _220
REMARK   94  A    between atoms: _224  and  _225
REMARK   95  A    between atoms: _230  and  _232
REMARK   96  A    between atoms: _232  and  _233
REMARK   97  A    between atoms: _232  and  _235
REMARK   98  A    between atoms: _238  and  _240
REMARK   99  A    between atoms: _240  and  _241
REMARK  100  A    between atoms: _240  and  _243
REMARK  101  A    between atoms: _243  and  _244
REMARK  102  A    between atoms: _249  and  _251
REMARK  103  A    between atoms: _251  and  _252
REMARK  104  A    between atoms: _251  and  _254
REMARK  105  A    between atoms: _254  and  _255
REMARK  106  A    between atoms: _258  and  _260
REMARK  107  A    between atoms: _260  and  _261
REMARK  108  A    between atoms: _260  and  _263
REMARK  109  A    between atoms: _263  and  _264
REMARK  110  A    between atoms: _267  and  _269
REMARK  111  A    between atoms: _269  and  _270
REMARK  112  A    between atoms: _272  and  _274
REMARK  113  A    between atoms: _274  and  _275
REMARK  114  A    between atoms: _274  and  _277
REMARK  115  A    between atoms: _277  and  _278
REMARK  116  A    between atoms: _278  and  _279
REMARK  117  A    between atoms: _279  and  _280
REMARK  118  A    between atoms: _289  and  _291
REMARK  119  A    between atoms: _291  and  _292
REMARK  120  A    between atoms: _291  and  _294
REMARK  121  A    between atoms: _294  and  _295
REMARK  122  A    between atoms: _300  and  _302
REMARK  123  A    between atoms: _302  and  _303
REMARK  124  A    between atoms: _302  and  _305
REMARK  125  A    between atoms: _305  and  _306
REMARK  126  A    between atoms: _306  and  _307
REMARK  127  A    between atoms: _307  and  _308
REMARK  128  A    between atoms: _317  and  _319
REMARK  129  A    between atoms: _319  and  _320
REMARK  130  A    between atoms: _319  and  _322
REMARK  131  A    between atoms: _322  and  _323
REMARK  132  A    between atoms: _326  and  _328
REMARK  133  A    between atoms: _328  and  _329
REMARK  134  A    between atoms: _328  and  _331
REMARK  135  A    between atoms: _331  and  _332
REMARK  136  A    between atoms: _335  and  _337
REMARK  137  A    between atoms: _337  and  _338
REMARK  138  A    between atoms: _337  and  _340
REMARK  139  A    between atoms: _340  and  _341
REMARK  140  A    between atoms: _344  and  _346
REMARK  141  A    between atoms: _346  and  _347
REMARK  142  A    between atoms: _346  and  _349
REMARK  143  A    between atoms: _349  and  _350
REMARK  144  A    between atoms: _353  and  _355
REMARK  145  A    between atoms: _355  and  _356
REMARK  146  A    between atoms: _355  and  _358
REMARK  147  A    between atoms: _358  and  _359
REMARK  148  A    between atoms: _362  and  _364
REMARK  149  A    between atoms: _364  and  _365
REMARK  150  A    between atoms: _367  and  _369
REMARK  151  A    between atoms: _369  and  _370
REMARK  152  A    between atoms: _373  and  _375
REMARK  153  A    between atoms: _375  and  _376
REMARK  154  A    between atoms: _375  and  _378
REMARK  155  A    between atoms: _378  and  _379
REMARK  156  A    between atoms: _382  and  _384
REMARK  157  A    between atoms: _384  and  _385
REMARK  158  A    between atoms: _384  and  _387
REMARK  159  A    between atoms: _387  and  _388
REMARK  160  A    between atoms: _391  and  _393
REMARK  161  A    between atoms: _393  and  _394
REMARK  162  A    between atoms: _393  and  _396
REMARK  163  A    between atoms: _396  and  _397
REMARK  164  A    between atoms: _400  and  _402
REMARK  165  A    between atoms: _402  and  _403
REMARK  166  A    between atoms: _402  and  _405
REMARK  167  A    between atoms: _408  and  _410
REMARK  168  A    between atoms: _410  and  _411
REMARK  169  A    between atoms: _410  and  _413
REMARK  170  A    between atoms: _413  and  _414
REMARK  171  A    between atoms: _414  and  _415
REMARK  172  A    between atoms: _415  and  _416
REMARK  173  A    between atoms: _416  and  _417
REMARK  174  A    between atoms: _421  and  _423
REMARK  175  A    between atoms: _423  and  _424
REMARK  176  A    between atoms: _423  and  _426
REMARK  177  A    between atoms: _426  and  _427
REMARK  178  A    between atoms: _427  and  _428
REMARK  179  A    between atoms: _430  and  _432
REMARK  180  A    between atoms: _432  and  _433
REMARK  181  A    between atoms: _432  and  _435
REMARK  182  A    between atoms: _435  and  _436
REMARK  183  A    between atoms: _439  and  _441
REMARK  184  A    between atoms: _441  and  _442
REMARK  185  A    between atoms: _444  and  _446
REMARK  186  A    between atoms: _446  and  _447
REMARK  187  A    between atoms: _449  and  _451
REMARK  188  A    between atoms: _451  and  _452
REMARK  189  A    between atoms: _451  and  _454
REMARK  190  A    between atoms: _454  and  _455
REMARK  191  A    between atoms: _458  and  _460
REMARK  192  A    between atoms: _460  and  _461
REMARK  193  A    between atoms: _463  and  _465
REMARK  194  A    between atoms: _465  and  _466
REMARK  195  A    between atoms: _468  and  _470
REMARK  196  A    between atoms: _470  and  _471
REMARK  197  A    between atoms: _470  and  _473
REMARK  198  A    between atoms: _473  and  _474
REMARK  199  A    between atoms: _480  and  _482
REMARK  200  A    between atoms: _482  and  _483
REMARK  201  A    between atoms: _482  and  _485
REMARK  202  A    between atoms: _485  and  _486
REMARK  203  A    between atoms: _489  and  _491
REMARK  204  A    between atoms: _491  and  _492
REMARK  205  A    between atoms: _491  and  _494
REMARK  206  A    between atoms: _497  and  _499
REMARK  207  A    between atoms: _499  and  _500
REMARK  208  A    between atoms: _499  and  _502
REMARK  209  A    between atoms: _502  and  _503
REMARK  210  A    between atoms: _506  and  _508
REMARK  211  A    between atoms: _508  and  _509
REMARK  212  A    between atoms: _508  and  _511
REMARK  213  A    between atoms: _511  and  _512
REMARK  214  A    between atoms: _516  and  _517
REMARK  215  A    between atoms: _522  and  _524
REMARK  216  A    between atoms: _524  and  _525
REMARK  217  A    between atoms: _524  and  _527
REMARK  218  A    between atoms: _530  and  _532
REMARK  219  A    between atoms: _532  and  _533
REMARK  220  A    between atoms: _532  and  _535
REMARK  221  A    between atoms: _535  and  _536
REMARK  222  A    between atoms: _541  and  _543
REMARK  223  A    between atoms: _543  and  _544
REMARK  224  A    between atoms: _543  and  _546
REMARK  225  A    between atoms: _546  and  _547
REMARK  226  A    between atoms: _550  and  _552
REMARK  227  A    between atoms: _552  and  _553
REMARK  228  A    between atoms: _552  and  _555
REMARK  229  A    between atoms: _555  and  _556
REMARK  230  A    between atoms: _559  and  _561
REMARK  231  A    between atoms: _561  and  _562
REMARK  232  A    between atoms: _564  and  _566
REMARK  233  A    between atoms: _566  and  _567
REMARK  234  A    between atoms: _566  and  _569
REMARK  235  A    between atoms: _569  and  _570
REMARK  236  A    between atoms: _570  and  _571
REMARK  237  A    between atoms: _571  and  _572
REMARK  238  A    between atoms: _581  and  _583
REMARK  239  A    between atoms: _583  and  _584
REMARK  240  A    between atoms: _583  and  _586
REMARK  241  A    between atoms: _586  and  _587
REMARK                            x       y       z     vdW  Elec       q    Type
REMARK                         _______ _______ _______ _____ _____    ______ ____
ROOT
ATOM      1  CA  LEU A   1       7.845 -12.576  -6.454  0.00  0.00    +0.133 C 
ENDROOT
BRANCH   1   2
ATOM      2  N   LEU A   1       8.614 -11.386  -6.860  0.00  0.00    -0.239 NA
ATOM      3  H   LEU A   1       9.264 -11.450  -7.669  0.00  0.00    +0.142 HD
ENDBRANCH   1   2
BRANCH   1   4
ATOM      4  C   LEU A   1       8.737 -13.458  -5.602  0.00  0.00    +0.224 C 
ATOM      5  O   LEU A   1       9.951 -13.554  -5.856  0.00  0.00    -0.287 OA
ENDBRANCH   1   4
BRANCH   1   6
ATOM      6  CB  LEU A   1       7.389 -13.371  -7.679  0.00  0.00    +0.025 C 
BRANCH   6   7
ATOM      7  CG  LEU A   1       6.816 -12.517  -8.831  0.00  0.00    +0.002 C 
ATOM      8  CD2 LEU A   1       5.575 -11.852  -8.322  0.00  0.00    +0.000 C 
ATOM      9  CD1 LEU A   1       6.483 -13.377 -10.053  0.00  0.00    +0.000 C 
ENDBRANCH   6   7
ENDBRANCH   1   6
TORSDOF 4
REMARK  Name = ../refined-set-2016/2pk6/2pk6_pocket.pdb
REMARK  241 active torsions:
REMARK  status: ('A' for Active; 'I' for Inactive)
REMARK    1  A    between atoms: _1  and  _3
REMARK    2  A    between atoms: _3  and  _4
REMARK    3  A    between atoms: _3  and  _6
REMARK    4  A    between atoms: _6  and  _7
REMARK    5  A    between atoms: _7  and  _8
REMARK    6  A    between atoms: _8  and  _9
REMARK    7  A    between atoms: _18  and  _20
REMARK    8  A    between atoms: _20  and  _21
REMARK    9  A    between atoms: _20  and  _23
REMARK   10  A    between atoms: _23  and  _24
REMARK   11  A    between atoms: _27  and  _29
REMARK   12  A    between atoms: _29  and  _30
REMARK   13  A    between atoms: _29  and  _32
REMARK   14  A    between atoms: _32  and  _33
REMARK   15  A    between atoms: _36  and  _38
REMARK   16  A    between atoms: _38  and  _39
REMARK   17  A    between atoms: _38  and  _41
REMARK   18  A    between atoms: _41  and  _42
REMARK   19  A    between atoms: _45  and  _47
REMARK   20  A    between atoms: _47  and  _48
REMARK   21  A    between atoms: _47  and  _50
REMARK   22  A    between atoms: _50  and  _51
REMARK   23  A    between atoms: _54  and  _56
REMARK   24  A    between atoms: _56  and  _57
REMARK   25  A    between atoms: _59  and  _61
REMARK   26  A    between atoms: _61  and  _62
REMARK   27  A    between atoms: _65  and  _67
REMARK   28  A    between atoms: _67  and  _68
REMARK   29  A    between atoms: _67  and  _70
REMARK   30  A    between atoms: _70  and  _71
REMARK   31  A    between atoms: _74  and  _76
REMARK   32  A    between atoms: _76  and  _77
REMARK   33  A    between atoms: _76  and  _79
REMARK   34  A    between atoms: _79  and  _80
REMARK   35  A    between atoms: _83  and  _85
REMARK   36  A    between atoms: _85  and  _86
REMARK   37  A    between atoms: _85  and  _88
REMARK   38  A    between atoms: _88  and  _89
REMARK   39  A    between atoms: _92  and  _94
REMARK   40  A    between atoms: _94  and  _95
REMARK   41  A    between atoms: _94  and  _97
REMARK   42  A    between atoms: _100  and  _102
REMARK   43  A    between atoms: _102  and  _103
REMARK   44  A    between atoms: _102  and  _105
REMARK   45  A    between atoms: _105  and  _106
REMARK   46  A    between atoms: _109  and  _111
REMARK   47  A    between atoms: _111  and  _112
REMARK   48  A    between atoms: _111  and  _114
REMARK   49  A    between atoms: _114  and  _115
REMARK   50  A    between atoms: _115  and  _116
REMARK   51  A    between atoms: _116  and  _117
REMARK   52  A    between atoms: _117  and  _118
REMARK   53  A    between atoms: _122  and  _124
REMARK   54  A    between atoms: _124  and  _125
REMARK   55  A    between atoms: _124  and  _127
REMARK   56  A    between atoms: _127  and  _128
REMARK   57  A    between atoms: _128  and  _129
REMARK   58  A    between atoms: _131  and  _133
REMARK   59  A    between atoms: _133  and  _134
REMARK   60  A    between atoms: _133  and  _136
REMARK   61  A    between atoms: _136  and  _137
REMARK   62  A    between atoms: _140  and  _142
REMARK   63  A    between atoms: _142  and  _143
REMARK   64  A    between atoms: _145  and  _147
REMARK   65  A    between atoms: _147  and  _148
REMARK   66  A    between atoms: _150  and  _152
REMARK   67  A    between atoms: _152  and  _153
REMARK   68  A    between atoms: _152  and  _155
REMARK   69  A    between atoms: _155  and  _156
REMARK   70  A    between atoms: _159  and  _161
REMARK   71  A    between atoms: _161  and  _162
REMARK   72  A    between atoms: _164  and  _166
REMARK   73  A    between atoms: _166  and  _167
REMARK   74  A    between atoms: _169  and  _171
REMARK   75  A    between atoms: _171  and  _172
REMARK   76  A    between atoms: _171  and  _174
REMARK   77  A    between atoms: _174  and  _175
REMARK   78  A    between atoms: _181  and  _183
REMARK   79  A    between atoms: _183  and  _184
REMARK   80  A    between atoms: _183  and  _186
REMARK   81  A    between atoms: _186  and  _187
REMARK   82  A    between atoms: _190  and  _192
REMARK   83  A    between atoms: _192  and  _193
REMARK   84  A    between atoms: _192  and  _195
REMARK   85  A    between atoms: _198  and  _200
REMARK   86  A    between atoms: _200  and  _201
REMARK   87  A    between atoms: _200  and  _203
REMARK   88  A    between atoms: _203  and  _204
REMARK   89  A    between atoms: _208  and  _209
REMARK   90  A    between atoms: _214  and  _216
REMARK   91  A    between atoms: _216  and  _217
REMARK   92  A    between atoms: _216  and  _219
REMARK   93  A    between atoms: _219  and  _220
REMARK   94  A    between atoms: _224  and  _225
REMARK   95  A    between atoms: _230  and  _232
REMARK   96  A    between atoms: _232  and  _233
REMARK   97  A    between atoms: _232  and  _235
REMARK   98  A    between atoms: _238  and  _240
REMARK   99  A    between atoms: _240  and  _241
REMARK  100  A    between atoms: _240  and  _243
REMARK  101  A    between atoms: _243  and  _244
REMARK  102  A    between atoms: _249  and  _251
REMARK  103  A    between atoms: _251  and  _252
REMARK  104  A    between atoms: _251  and  _254
REMARK  105  A    between atoms: _254  and  _255
REMARK  106  A    between atoms: _258  and  _260
REMARK  107  A    between atoms: _260  and  _261
REMARK  108  A    between atoms: _260  and  _263
REMARK  109  A    between atoms: _263  and  _264
REMARK  110  A    between atoms: _267  and  _269
REMARK  111  A    between atoms: _269  and  _270
REMARK  112  A    between atoms: _272  and  _274
REMARK  113  A    between atoms: _274  and  _275
REMARK  114  A    between atoms: _274  and  _277
REMARK  115  A    between atoms: _277  and  _278
REMARK  116  A    between atoms: _278  and  _279
REMARK  117  A    between atoms: _279  and  _280
REMARK  118  A    between atoms: _289  and  _291
REMARK  119  A    between atoms: _291  and  _292
REMARK  120  A    between atoms: _291  and  _294
REMARK  121  A    between atoms: _294  and  _295
REMARK  122  A    between atoms: _300  and  _302
REMARK  123  A    between atoms: _302  and  _303
REMARK  124  A    between atoms: _302  and  _305
REMARK  125  A    between atoms: _305  and  _306
REMARK  126  A    between atoms: _306  and  _307
REMARK  127  A    between atoms: _307  and  _308
REMARK  128  A    between atoms: _317  and  _319
REMARK  129  A    between atoms: _319  and  _320
REMARK  130  A    between atoms: _319  and  _322
REMARK  131  A    between atoms: _322  and  _323
REMARK  132  A    between atoms: _326  and  _328
REMARK  133  A    between atoms: _328  and  _329
REMARK  134  A    between atoms: _328  and  _331
REMARK  135  A    between atoms: _331  and  _332
REMARK  136  A    between atoms: _335  and  _337
REMARK  137  A    between atoms: _337  and  _338
REMARK  138  A    between atoms: _337  and  _340
REMARK  139  A    between atoms: _340  and  _341
REMARK  140  A    between atoms: _344  and  _346
REMARK  141  A    between atoms: _346  and  _347
REMARK  142  A    between atoms: _346  and  _349
REMARK  143  A    between atoms: _349  and  _350
REMARK  144  A    between atoms: _353  and  _355
REMARK  145  A    between atoms: _355  and  _356
REMARK  146  A    between atoms: _355  and  _358
REMARK  147  A    between atoms: _358  and  _359
REMARK  148  A    between atoms: _362  and  _364
REMARK  149  A    between atoms: _364  and  _365
REMARK  150  A    between atoms: _367  and  _369
REMARK  151  A    between atoms: _369  and  _370
REMARK  152  A    between atoms: _373  and  _375
REMARK  153  A    between atoms: _375  and  _376
REMARK  154  A    between atoms: _375  and  _378
REMARK  155  A    between atoms: _378  and  _379
REMARK  156  A    between atoms: _382  and  _384
REMARK  157  A    between atoms: _384  and  _385
REMARK  158  A    between atoms: _384  and  _387
REMARK  159  A    between atoms: _387  and  _388
REMARK  160  A    between atoms: _391  and  _393
REMARK  161  A    between atoms: _393  and  _394
REMARK  162  A    between atoms: _393  and  _396
REMARK  163  A    between atoms: _396  and  _397
REMARK  164  A    between atoms: _400  and  _402
REMARK  165  A    between atoms: _402  and  _403
REMARK  166  A    between atoms: _402  and  _405
REMARK  167  A    between atoms: _408  and  _410
REMARK  168  A    between atoms: _410  and  _411
REMARK  169  A    between atoms: _410  and  _413
REMARK  170  A    between atoms: _413  and  _414
REMARK  171  A    between atoms: _414  and  _415
REMARK  172  A    between atoms: _415  and  _416
REMARK  173  A    between atoms: _416  and  _417
REMARK  174  A    between atoms: _421  and  _423
REMARK  175  A    between atoms: _423  and  _424
REMARK  176  A    between atoms: _423  and  _426
REMARK  177  A    between atoms: _426  and  _427
REMARK  178  A    between atoms: _427  and  _428
REMARK  179  A    between atoms: _430  and  _432
REMARK  180  A    between atoms: _432  and  _433
REMARK  181  A    between atoms: _432  and  _435
REMARK  182  A    between atoms: _435  and  _436
REMARK  183  A    between atoms: _439  and  _441
REMARK  184  A    between atoms: _441  and  _442
REMARK  185  A    between atoms: _444  and  _446
REMARK  186  A    between atoms: _446  and  _447
REMARK  187  A    between atoms: _449  and  _451
REMARK  188  A    between atoms: _451  and  _452
REMARK  189  A    between atoms: _451  and  _454
REMARK  190  A    between atoms: _454  and  _455
REMARK  191  A    between atoms: _458  and  _460
REMARK  192  A    between atoms: _460  and  _461
REMARK  193  A    between atoms: _463  and  _465
REMARK  194  A    between atoms: _465  and  _466
REMARK  195  A    between atoms: _468  and  _470
REMARK  196  A    between atoms: _470  and  _471
REMARK  197  A    between atoms: _470  and  _473
REMARK  198  A    between atoms: _473  and  _474
REMARK  199  A    between atoms: _480  and  _482
REMARK  200  A    between atoms: _482  and  _483
REMARK  201  A    between atoms: _482  and  _485
REMARK  202  A    between atoms: _485  and  _486
REMARK  203  A    between atoms: _489  and  _491
REMARK  204  A    between atoms: _491  and  _492
REMARK  205  A    between atoms: _491  and  _494
REMARK  206  A    between atoms: _497  and  _499
REMARK  207  A    between atoms: _499  and  _500
REMARK  208  A    between atoms: _499  and  _502
REMARK  209  A    between atoms: _502  and  _503
REMARK  210  A    between atoms: _506  and  _508
REMARK  211  A    between atoms: _508  and  _509
REMARK  212  A    between atoms: _508  and  _511
REMARK  213  A    between atoms: _511  and  _512
REMARK  214  A    between atoms: _516  and  _517
REMARK  215  A    between atoms: _522  and  _524
REMARK  216  A    between atoms: _524  and  _525
REMARK  217  A    between atoms: _524  and  _527
REMARK  218  A    between atoms: _530  and  _532
REMARK  219  A    between atoms: _532  and  _533
REMARK  220  A    between atoms: _532  and  _535
REMARK  221  A    between atoms: _535  and  _536
REMARK  222  A    between atoms: _541  and  _543
REMARK  223  A    between atoms: _543  and  _544
REMARK  224  A    between atoms: _543  and  _546
REMARK  225  A    between atoms: _546  and  _547
REMARK  226  A    between atoms: _550  and  _552
REMARK  227  A    between atoms: _552  and  _553
REMARK  228  A    between atoms: _552  and  _555
REMARK  229  A    between atoms: _555  and  _556
REMARK  230  A    between atoms: _559  and  _561
REMARK  231  A    between atoms: _561  and  _562
REMARK  232  A    between atoms: _564  and  _566
REMARK  233  A    between atoms: _566  and  _567
REMARK  234  A    between atoms: _566  and  _569
REMARK  235  A    between atoms: _569  and  _570
REMARK  236  A    between atoms: _570  and  _571
REMARK  237  A    between atoms: _571  and  _572
REMARK  238  A    between atoms: _581  and  _583
REMARK  239  A    between atoms: _583  and  _584
REMARK  240  A    between atoms: _583  and  _586
REMARK  241  A    between atoms: _586  and  _587
REMARK                            x       y       z     vdW  Elec       q    Type
REMARK                         _______ _______ _______ _____ _____    ______ ____
ROOT
ATOM      1  CA  ILE A   6      15.840 -14.933 -11.294  0.00  0.00    +0.149 C 
ENDROOT
BRANCH   1   2
ATOM      2  C   ILE A   6      15.505 -13.426 -11.321  0.00  0.00    +0.241 C 
ATOM      3  O   ILE A   6      14.531 -12.990 -10.718  0.00  0.00    -0.273 OA
ATOM      4  N   ILE A   7      16.342 -12.667 -12.047  0.00  0.00    -0.297 N 
ATOM      5  H   ILE A   7      17.219 -13.085 -12.418  0.00  0.00    +0.150 HD
BRANCH   4   6
ATOM      6  CA  ILE A   7      16.042 -11.263 -12.325  0.00  0.00    +0.149 C 
BRANCH   6   7
ATOM      7  C   ILE A   7      15.398 -11.233 -13.721  0.00  0.00    +0.241 C 
ATOM      8  N   GLY A   8      14.123 -10.838 -13.768  0.00  0.00    -0.295 N 
ATOM      9  H   GLY A   8      13.664 -10.523 -12.889  0.00  0.00    +0.150 HD
ATOM     10  O   ILE A   7      16.062 -11.569 -14.714  0.00  0.00    -0.273 OA
BRANCH   8  11
ATOM     11  CA  GLY A   8      13.357 -10.831 -14.992  0.00  0.00    +0.176 C 
BRANCH  11  12
ATOM     12  C   GLY A   8      13.282  -9.463 -15.627  0.00  0.00    +0.243 C 
ATOM     13  O   GLY A   8      13.841  -8.471 -15.105  0.00  0.00    -0.273 OA
ATOM     14  N   ARG A   9      12.597  -9.399 -16.766  0.00  0.00    -0.297 N 
ATOM     15  H   ARG A   9      12.064 -10.225 -17.106  0.00  0.00    +0.150 HD
BRANCH  14  16
ATOM     16  CA  ARG A   9      12.601  -8.154 -17.536  0.00  0.00    +0.149 C 
BRANCH  16  17
ATOM     17  C   ARG A   9      12.126  -6.950 -16.729  0.00  0.00    +0.241 C 
ATOM     18  N   ASN A  10      11.212  -7.169 -15.790  0.00  0.00    -0.298 N 
ATOM     19  H   ASN A  10      10.911  -8.137 -15.558  0.00  0.00    +0.150 HD
ATOM     20  O   ARG A   9      12.498  -5.829 -17.051  0.00  0.00    -0.273 OA
BRANCH  18  21
ATOM     21  CA  ASN A  10      10.628  -6.000 -15.077  0.00  0.00    +0.146 C 
BRANCH  21  22
ATOM     22  C   ASN A  10      11.711  -5.192 -14.372  0.00  0.00    +0.227 C 
ATOM     23  O   ASN A  10      11.534  -3.986 -14.128  0.00  0.00    -0.286 OA
ENDBRANCH  21  22
BRANCH  21  24
ATOM     24  CB  ASN A  10       9.539  -6.427 -14.100  0.00  0.00    +0.112 C 
BRANCH  24  25
ATOM     25  CG  ASN A  10      10.089  -7.131 -12.875  0.00  0.00    +0.222 C 
ATOM     26  ND2 ASN A  10       9.758  -6.586 -11.658  0.00  0.00    -0.329 N 
ATOM     27 HD21 ASN A  10      10.144  -6.995 -10.783  0.00  0.00    +0.145 HD
ATOM     28 HD22 ASN A  10       9.122  -5.765 -11.612  0.00  0.00    +0.145 HD
ATOM     29  OD1 ASN A  10      10.837  -8.104 -13.003  0.00  0.00    -0.275 OA
ENDBRANCH  24  25
ENDBRANCH  21  24
ENDBRANCH  18  21
ENDBRANCH  16  17
BRANCH  16  30
ATOM     30  CB  ARG A   9      11.755  -8.308 -18.791  0.00  0.00    +0.033 C 
BRANCH  30  31
ATOM     31  CG  ARG A   9      12.426  -9.282 -19.781  0.00  0.00    +0.045 C 
BRANCH  31  32
ATOM     32  CD  ARG A   9      11.653  -9.393 -21.116  0.00  0.00    +0.174 C 
BRANCH  32  33
ATOM     33  NE  ARG A   9      10.244  -9.800 -20.952  0.00  0.00    -0.265 N 
ATOM     34  CZ  ARG A   9       9.180  -8.962 -20.869  0.00  0.00    +0.342 C 
ATOM     35  NH2 ARG A   9       7.953  -9.479 -20.660  0.00  0.00    -0.292 N 
ATOM     36 HH21 ARG A   9       7.831 -10.507 -20.565  0.00  0.00    +0.255 HD
ATOM     37 HH22 ARG A   9       7.128  -8.849 -20.594  0.00  0.00    +0.255 HD
ATOM     38  NH1 ARG A   9       9.291  -7.632 -20.977  0.00  0.00    -0.292 N 
ATOM     39 HH11 ARG A   9       8.444  -7.032 -20.906  0.00  0.00    +0.255 HD
ATOM     40 HH12 ARG A   9      10.224  -7.199 -21.132  0.00  0.00    +0.255 HD
ATOM     41  HE  ARG A   9      10.049 -10.820 -20.895  0.00  0.00    +0.259 HD
ENDBRANCH  32  33
ENDBRANCH  31  32
ENDBRANCH  30  31
ENDBRANCH  16  30
ENDBRANCH  14  16
ENDBRANCH  11  12
ENDBRANCH   8  11
ENDBRANCH   6   7
BRANCH   6  42
ATOM     42  CB  ILE A   7      17.312 -10.393 -12.333  0.00  0.00    +0.027 C 
ATOM     43  CG2 ILE A   7      16.967  -8.873 -12.593  0.00  0.00    +0.002 C 
BRANCH  42  44
ATOM     44  CG1 ILE A   7      18.060 -10.546 -11.006  0.00  0.00    +0.002 C 
ATOM     45  CD1 ILE A   7      17.213 -10.296  -9.747  0.00  0.00    +0.000 C 
ENDBRANCH  42  44
ENDBRANCH   6  42
ENDBRANCH   4   6
ENDBRANCH   1   2
BRANCH   1  47
ATOM     46  C   ASN A   5      16.990 -16.062  -9.482  0.00  0.00    +0.241 C 
ATOM     47  N   ILE A   6      15.908 -15.433  -9.926  0.00  0.00    -0.297 N 
ATOM     48  H   ILE A   6      15.098 -15.295  -9.289  0.00  0.00    +0.150 HD
ATOM     49  O   ASN A   5      18.068 -16.103 -10.068  0.00  0.00    -0.273 OA
BRANCH  46  50
ATOM     50  CA  ASN A   5      16.879 -16.686  -8.088  0.00  0.00    +0.158 C 
BRANCH  50  52
ATOM     51  C   VAL A   4      16.606 -18.980  -8.835  0.00  0.00    +0.241 C 
ATOM     52  N   ASN A   5      17.332 -18.078  -8.165  0.00  0.00    -0.297 N 
ATOM     53  H   ASN A   5      18.217 -18.364  -7.699  0.00  0.00    +0.150 HD
ATOM     54  O   VAL A   4      15.478 -18.735  -9.261  0.00  0.00    -0.273 OA
BRANCH  51  55
ATOM     55  CA  VAL A   4      17.216 -20.382  -9.051  0.00  0.00    +0.149 C 
BRANCH  55  58
ATOM     56  C   PRO A   3      16.252 -22.506  -8.195  0.00  0.00    +0.245 C 
ATOM     57  O   PRO A   3      17.315 -22.921  -7.712  0.00  0.00    -0.273 OA
ATOM     58  N   VAL A   4      16.123 -21.337  -8.838  0.00  0.00    -0.297 N 
ATOM     59  H   VAL A   4      15.184 -21.090  -9.211  0.00  0.00    +0.150 HD
BRANCH  56  63
ATOM     60  C   THR A   2      13.328 -21.886  -7.380  0.00  0.00    +0.247 C 
ATOM     61  O   THR A   2      13.972 -21.745  -6.335  0.00  0.00    -0.273 OA
ATOM     62  N   PRO A   3      13.730 -22.696  -8.383  0.00  0.00    -0.264 N 
ATOM     63  CA  PRO A   3      15.016 -23.394  -8.172  0.00  0.00    +0.175 C 
ATOM     64  CB  PRO A   3      15.077 -24.423  -9.327  0.00  0.00    -0.000 C 
ATOM     65  CG  PRO A   3      13.940 -24.185 -10.180  0.00  0.00    -0.007 C 
ATOM     66  CD  PRO A   3      13.048 -23.094  -9.627  0.00  0.00    +0.120 C 
BRANCH  60  67
ATOM     67  CA  THR A   2      12.007 -21.150  -7.567  0.00  0.00    +0.176 C 
BRANCH  67  69
ATOM     68  C   PRO A   1      10.603 -22.185  -5.909  0.00  0.00    +0.239 C 
ATOM     69  N   THR A   2      11.270 -21.103  -6.307  0.00  0.00    -0.295 N 
ATOM     70  H   THR A   2      11.266 -20.238  -5.729  0.00  0.00    +0.150 HD
ATOM     71  O   PRO A   1      10.534 -23.212  -6.575  0.00  0.00    -0.274 OA
BRANCH  68  76
ATOM     72  N   PRO A   1       9.034 -20.972  -4.378  0.00  0.00    -0.210 NA
ATOM     73  CD  PRO A   1       7.612 -21.368  -4.414  0.00  0.00    +0.089 C 
ATOM     74  CG  PRO A   1       7.681 -22.874  -4.764  0.00  0.00    +0.021 C 
ATOM     75  CB  PRO A   1       9.091 -23.313  -4.212  0.00  0.00    +0.028 C 
ATOM     76  CA  PRO A   1       9.964 -22.102  -4.533  0.00  0.00    +0.149 C 
ENDBRANCH  68  76
ENDBRANCH  67  69
BRANCH  67  77
ATOM     77  CB  THR A   2      12.271 -19.740  -8.104  0.00  0.00    +0.137 C 
ATOM     78  CG2 THR A   2      13.093 -18.896  -7.088  0.00  0.00    +0.034 C 
BRANCH  77  79
ATOM     79  OG1 THR A   2      13.004 -19.826  -9.316  0.00  0.00    -0.382 OA
ATOM     80  HG1 THR A   2      13.866 -20.283  -9.147  0.00  0.00    +0.210 HD
ENDBRANCH  77  79
ENDBRANCH  67  77
ENDBRANCH  60  67
ENDBRANCH  56  63
ENDBRANCH  55  58
BRANCH  55  81
ATOM     81  CB  VAL A   4      17.771 -20.496 -10.499  0.00  0.00    +0.027 C 
ATOM     82  CG2 VAL A   4      18.424 -21.877 -10.689  0.00  0.00    +0.002 C 
ATOM     83  CG1 VAL A   4      18.768 -19.412 -10.811  0.00  0.00    +0.002 C 
ENDBRANCH  55  81
ENDBRANCH  51  55
ENDBRANCH  50  52
BRANCH  50  84
ATOM     84  CB  ASN A   5      17.739 -15.898  -7.100  0.00  0.00    +0.114 C 
BRANCH  84  85
ATOM     85  CG  ASN A   5      17.636 -16.445  -5.700  0.00  0.00    +0.222 C 
ATOM     86  ND2 ASN A   5      18.760 -16.461  -4.987  0.00  0.00    -0.329 N 
ATOM     87 HD21 ASN A   5      18.753 -16.824  -4.013  0.00  0.00    +0.145 HD
ATOM     88 HD22 ASN A   5      19.646 -16.110  -5.404  0.00  0.00    +0.145 HD
ATOM     89  OD1 ASN A   5      16.552 -16.846  -5.266  0.00  0.00    -0.275 OA
ENDBRANCH  84  85
ENDBRANCH  50  84
ENDBRANCH  46  50
ENDBRANCH   1  47
BRANCH   1  90
ATOM     90  CB  ILE A   6      14.710 -15.733 -12.035  0.00  0.00    +0.027 C 
ATOM     91  CG2 ILE A   6      14.252 -15.035 -13.301  0.00  0.00    +0.002 C 
BRANCH  90  92
ATOM     92  CG1 ILE A   6      15.200 -17.162 -12.324  0.00  0.00    +0.002 C 
ATOM     93  CD1 ILE A   6      14.042 -18.151 -12.601  0.00  0.00    +0.000 C 
ENDBRANCH  90  92
ENDBRANCH   1  90
TORSDOF 33
REMARK  Name = ../refined-set-2016/2pk6/2pk6_pocket.pdb
REMARK  241 active torsions:
REMARK  status: ('A' for Active; 'I' for Inactive)
REMARK    1  A    between atoms: _1  and  _3
REMARK    2  A    between atoms: _3  and  _4
REMARK    3  A    between atoms: _3  and  _6
REMARK    4  A    between atoms: _6  and  _7
REMARK    5  A    between atoms: _7  and  _8
REMARK    6  A    between atoms: _8  and  _9
REMARK    7  A    between atoms: _18  and  _20
REMARK    8  A    between atoms: _20  and  _21
REMARK    9  A    between atoms: _20  and  _23
REMARK   10  A    between atoms: _23  and  _24
REMARK   11  A    between atoms: _27  and  _29
REMARK   12  A    between atoms: _29  and  _30
REMARK   13  A    between atoms: _29  and  _32
REMARK   14  A    between atoms: _32  and  _33
REMARK   15  A    between atoms: _36  and  _38
REMARK   16  A    between atoms: _38  and  _39
REMARK   17  A    between atoms: _38  and  _41
REMARK   18  A    between atoms: _41  and  _42
REMARK   19  A    between atoms: _45  and  _47
REMARK   20  A    between atoms: _47  and  _48
REMARK   21  A    between atoms: _47  and  _50
REMARK   22  A    between atoms: _50  and  _51
REMARK   23  A    between atoms: _54  and  _56
REMARK   24  A    between atoms: _56  and  _57
REMARK   25  A    between atoms: _59  and  _61
REMARK   26  A    between atoms: _61  and  _62
REMARK   27  A    between atoms: _65  and  _67
REMARK   28  A    between atoms: _67  and  _68
REMARK   29  A    between atoms: _67  and  _70
REMARK   30  A    between atoms: _70  and  _71
REMARK   31  A    between atoms: _74  and  _76
REMARK   32  A    between atoms: _76  and  _77
REMARK   33  A    between atoms: _76  and  _79
REMARK   34  A    between atoms: _79  and  _80
REMARK   35  A    between atoms: _83  and  _85
REMARK   36  A    between atoms: _85  and  _86
REMARK   37  A    between atoms: _85  and  _88
REMARK   38  A    between atoms: _88  and  _89
REMARK   39  A    between atoms: _92  and  _94
REMARK   40  A    between atoms: _94  and  _95
REMARK   41  A    between atoms: _94  and  _97
REMARK   42  A    between atoms: _100  and  _102
REMARK   43  A    between atoms: _102  and  _103
REMARK   44  A    between atoms: _102  and  _105
REMARK   45  A    between atoms: _105  and  _106
REMARK   46  A    between atoms: _109  and  _111
REMARK   47  A    between atoms: _111  and  _112
REMARK   48  A    between atoms: _111  and  _114
REMARK   49  A    between atoms: _114  and  _115
REMARK   50  A    between atoms: _115  and  _116
REMARK   51  A    between atoms: _116  and  _117
REMARK   52  A    between atoms: _117  and  _118
REMARK   53  A    between atoms: _122  and  _124
REMARK   54  A    between atoms: _124  and  _125
REMARK   55  A    between atoms: _124  and  _127
REMARK   56  A    between atoms: _127  and  _128
REMARK   57  A    between atoms: _128  and  _129
REMARK   58  A    between atoms: _131  and  _133
REMARK   59  A    between atoms: _133  and  _134
REMARK   60  A    between atoms: _133  and  _136
REMARK   61  A    between atoms: _136  and  _137
REMARK   62  A    between atoms: _140  and  _142
REMARK   63  A    between atoms: _142  and  _143
REMARK   64  A    between atoms: _145  and  _147
REMARK   65  A    between atoms: _147  and  _148
REMARK   66  A    between atoms: _150  and  _152
REMARK   67  A    between atoms: _152  and  _153
REMARK   68  A    between atoms: _152  and  _155
REMARK   69  A    between atoms: _155  and  _156
REMARK   70  A    between atoms: _159  and  _161
REMARK   71  A    between atoms: _161  and  _162
REMARK   72  A    between atoms: _164  and  _166
REMARK   73  A    between atoms: _166  and  _167
REMARK   74  A    between atoms: _169  and  _171
REMARK   75  A    between atoms: _171  and  _172
REMARK   76  A    between atoms: _171  and  _174
REMARK   77  A    between atoms: _174  and  _175
REMARK   78  A    between atoms: _181  and  _183
REMARK   79  A    between atoms: _183  and  _184
REMARK   80  A    between atoms: _183  and  _186
REMARK   81  A    between atoms: _186  and  _187
REMARK   82  A    between atoms: _190  and  _192
REMARK   83  A    between atoms: _192  and  _193
REMARK   84  A    between atoms: _192  and  _195
REMARK   85  A    between atoms: _198  and  _200
REMARK   86  A    between atoms: _200  and  _201
REMARK   87  A    between atoms: _200  and  _203
REMARK   88  A    between atoms: _203  and  _204
REMARK   89  A    between atoms: _208  and  _209
REMARK   90  A    between atoms: _214  and  _216
REMARK   91  A    between atoms: _216  and  _217
REMARK   92  A    between atoms: _216  and  _219
REMARK   93  A    between atoms: _219  and  _220
REMARK   94  A    between atoms: _224  and  _225
REMARK   95  A    between atoms: _230  and  _232
REMARK   96  A    between atoms: _232  and  _233
REMARK   97  A    between atoms: _232  and  _235
REMARK   98  A    between atoms: _238  and  _240
REMARK   99  A    between atoms: _240  and  _241
REMARK  100  A    between atoms: _240  and  _243
REMARK  101  A    between atoms: _243  and  _244
REMARK  102  A    between atoms: _249  and  _251
REMARK  103  A    between atoms: _251  and  _252
REMARK  104  A    between atoms: _251  and  _254
REMARK  105  A    between atoms: _254  and  _255
REMARK  106  A    between atoms: _258  and  _260
REMARK  107  A    between atoms: _260  and  _261
REMARK  108  A    between atoms: _260  and  _263
REMARK  109  A    between atoms: _263  and  _264
REMARK  110  A    between atoms: _267  and  _269
REMARK  111  A    between atoms: _269  and  _270
REMARK  112  A    between atoms: _272  and  _274
REMARK  113  A    between atoms: _274  and  _275
REMARK  114  A    between atoms: _274  and  _277
REMARK  115  A    between atoms: _277  and  _278
REMARK  116  A    between atoms: _278  and  _279
REMARK  117  A    between atoms: _279  and  _280
REMARK  118  A    between atoms: _289  and  _291
REMARK  119  A    between atoms: _291  and  _292
REMARK  120  A    between atoms: _291  and  _294
REMARK  121  A    between atoms: _294  and  _295
REMARK  122  A    between atoms: _300  and  _302
REMARK  123  A    between atoms: _302  and  _303
REMARK  124  A    between atoms: _302  and  _305
REMARK  125  A    between atoms: _305  and  _306
REMARK  126  A    between atoms: _306  and  _307
REMARK  127  A    between atoms: _307  and  _308
REMARK  128  A    between atoms: _317  and  _319
REMARK  129  A    between atoms: _319  and  _320
REMARK  130  A    between atoms: _319  and  _322
REMARK  131  A    between atoms: _322  and  _323
REMARK  132  A    between atoms: _326  and  _328
REMARK  133  A    between atoms: _328  and  _329
REMARK  134  A    between atoms: _328  and  _331
REMARK  135  A    between atoms: _331  and  _332
REMARK  136  A    between atoms: _335  and  _337
REMARK  137  A    between atoms: _337  and  _338
REMARK  138  A    between atoms: _337  and  _340
REMARK  139  A    between atoms: _340  and  _341
REMARK  140  A    between atoms: _344  and  _346
REMARK  141  A    between atoms: _346  and  _347
REMARK  142  A    between atoms: _346  and  _349
REMARK  143  A    between atoms: _349  and  _350
REMARK  144  A    between atoms: _353  and  _355
REMARK  145  A    between atoms: _355  and  _356
REMARK  146  A    between atoms: _355  and  _358
REMARK  147  A    between atoms: _358  and  _359
REMARK  148  A    between atoms: _362  and  _364
REMARK  149  A    between atoms: _364  and  _365
REMARK  150  A    between atoms: _367  and  _369
REMARK  151  A    between atoms: _369  and  _370
REMARK  152  A    between atoms: _373  and  _375
REMARK  153  A    between atoms: _375  and  _376
REMARK  154  A    between atoms: _375  and  _378
REMARK  155  A    between atoms: _378  and  _379
REMARK  156  A    between atoms: _382  and  _384
REMARK  157  A    between atoms: _384  and  _385
REMARK  158  A    between atoms: _384  and  _387
REMARK  159  A    between atoms: _387  and  _388
REMARK  160  A    between atoms: _391  and  _393
REMARK  161  A    between atoms: _393  and  _394
REMARK  162  A    between atoms: _393  and  _396
REMARK  163  A    between atoms: _396  and  _397
REMARK  164  A    between atoms: _400  and  _402
REMARK  165  A    between atoms: _402  and  _403
REMARK  166  A    between atoms: _402  and  _405
REMARK  167  A    between atoms: _408  and  _410
REMARK  168  A    between atoms: _410  and  _411
REMARK  169  A    between atoms: _410  and  _413
REMARK  170  A    between atoms: _413  and  _414
REMARK  171  A    between atoms: _414  and  _415
REMARK  172  A    between atoms: _415  and  _416
REMARK  173  A    between atoms: _416  and  _417
REMARK  174  A    between atoms: _421  and  _423
REMARK  175  A    between atoms: _423  and  _424
REMARK  176  A    between atoms: _423  and  _426
REMARK  177  A    between atoms: _426  and  _427
REMARK  178  A    between atoms: _427  and  _428
REMARK  179  A    between atoms: _430  and  _432
REMARK  180  A    between atoms: _432  and  _433
REMARK  181  A    between atoms: _432  and  _435
REMARK  182  A    between atoms: _435  and  _436
REMARK  183  A    between atoms: _439  and  _441
REMARK  184  A    between atoms: _441  and  _442
REMARK  185  A    between atoms: _444  and  _446
REMARK  186  A    between atoms: _446  and  _447
REMARK  187  A    between atoms: _449  and  _451
REMARK  188  A    between atoms: _451  and  _452
REMARK  189  A    between atoms: _451  and  _454
REMARK  190  A    between atoms: _454  and  _455
REMARK  191  A    between atoms: _458  and  _460
REMARK  192  A    between atoms: _460  and  _461
REMARK  193  A    between atoms: _463  and  _465
REMARK  194  A    between atoms: _465  and  _466
REMARK  195  A    between atoms: _468  and  _470
REMARK  196  A    between atoms: _470  and  _471
REMARK  197  A    between atoms: _470  and  _473
REMARK  198  A    between atoms: _473  and  _474
REMARK  199  A    between atoms: _480  and  _482
REMARK  200  A    between atoms: _482  and  _483
REMARK  201  A    between atoms: _482  and  _485
REMARK  202  A    between atoms: _485  and  _486
REMARK  203  A    between atoms: _489  and  _491
REMARK  204  A    between atoms: _491  and  _492
REMARK  205  A    between atoms: _491  and  _494
REMARK  206  A    between atoms: _497  and  _499
REMARK  207  A    between atoms: _499  and  _500
REMARK  208  A    between atoms: _499  and  _502
REMARK  209  A    between atoms: _502  and  _503
REMARK  210  A    between atoms: _506  and  _508
REMARK  211  A    between atoms: _508  and  _509
REMARK  212  A    between atoms: _508  and  _511
REMARK  213  A    between atoms: _511  and  _512
REMARK  214  A    between atoms: _516  and  _517
REMARK  215  A    between atoms: _522  and  _524
REMARK  216  A    between atoms: _524  and  _525
REMARK  217  A    between atoms: _524  and  _527
REMARK  218  A    between atoms: _530  and  _532
REMARK  219  A    between atoms: _532  and  _533
REMARK  220  A    between atoms: _532  and  _535
REMARK  221  A    between atoms: _535  and  _536
REMARK  222  A    between atoms: _541  and  _543
REMARK  223  A    between atoms: _543  and  _544
REMARK  224  A    between atoms: _543  and  _546
REMARK  225  A    between atoms: _546  and  _547
REMARK  226  A    between atoms: _550  and  _552
REMARK  227  A    between atoms: _552  and  _553
REMARK  228  A    between atoms: _552  and  _555
REMARK  229  A    between atoms: _555  and  _556
REMARK  230  A    between atoms: _559  and  _561
REMARK  231  A    between atoms: _561  and  _562
REMARK  232  A    between atoms: _564  and  _566
REMARK  233  A    between atoms: _566  and  _567
REMARK  234  A    between atoms: _566  and  _569
REMARK  235  A    between atoms: _569  and  _570
REMARK  236  A    between atoms: _570  and  _571
REMARK  237  A    between atoms: _571  and  _572
REMARK  238  A    between atoms: _581  and  _583
REMARK  239  A    between atoms: _583  and  _584
REMARK  240  A    between atoms: _583  and  _586
REMARK  241  A    between atoms: _586  and  _587
REMARK                            x       y       z     vdW  Elec       q    Type
REMARK                         _______ _______ _______ _____ _____    ______ ____
ROOT
ATOM      1  NE  ARG A   1       5.886 -12.726 -22.453  0.00  0.00    -0.265 N 
ATOM      2  HE  ARG A   1       6.350 -12.423 -21.573  0.00  0.00    +0.259 HD
ATOM      3  CZ  ARG A   1       4.672 -13.266 -22.367  0.00  0.00    +0.342 C 
ATOM      4  NH2 ARG A   1       4.109 -13.403 -21.175  0.00  0.00    -0.292 N 
ATOM      5 HH21 ARG A   1       4.615 -13.090 -20.322  0.00  0.00    +0.255 HD
ATOM      6 HH22 ARG A   1       3.161 -13.823 -21.093  0.00  0.00    +0.255 HD
ATOM      7  NH1 ARG A   1       4.019 -13.674 -23.460  0.00  0.00    -0.292 N 
ATOM      8 HH11 ARG A   1       3.071 -14.094 -23.373  0.00  0.00    +0.255 HD
ATOM      9 HH12 ARG A   1       4.459 -13.572 -24.397  0.00  0.00    +0.255 HD
ENDROOT
BRANCH   1  10
ATOM     10  CD  ARG A   1       6.603 -12.535 -23.706  0.00  0.00    +0.174 C 
BRANCH  10  11
ATOM     11  CG  ARG A   1       7.681 -11.472 -23.470  0.00  0.00    +0.045 C 
BRANCH  11  12
ATOM     12  CB  ARG A   1       8.468 -11.222 -24.743  0.00  0.00    +0.029 C 
BRANCH  12  13
ATOM     13  CA  ARG A   1       9.467 -10.090 -24.606  0.00  0.00    +0.133 C 
BRANCH  13  14
ATOM     14  N   ARG A   1       8.740  -8.820 -24.451  0.00  0.00    -0.239 NA
ATOM     15  H   ARG A   1       7.700  -8.810 -24.437  0.00  0.00    +0.142 HD
ENDBRANCH  13  14
BRANCH  13  16
ATOM     16  C   ARG A   1      10.350 -10.055 -25.849  0.00  0.00    +0.224 C 
ATOM     17  O   ARG A   1       9.908  -9.608 -26.893  0.00  0.00    -0.287 OA
ENDBRANCH  13  16
ENDBRANCH  12  13
ENDBRANCH  11  12
ENDBRANCH  10  11
ENDBRANCH   1  10
TORSDOF 6
REMARK  Name = ../refined-set-2016/2pk6/2pk6_pocket.pdb
REMARK  241 active torsions:
REMARK  status: ('A' for Active; 'I' for Inactive)
REMARK    1  A    between atoms: _1  and  _3
REMARK    2  A    between atoms: _3  and  _4
REMARK    3  A    between atoms: _3  and  _6
REMARK    4  A    between atoms: _6  and  _7
REMARK    5  A    between atoms: _7  and  _8
REMARK    6  A    between atoms: _8  and  _9
REMARK    7  A    between atoms: _18  and  _20
REMARK    8  A    between atoms: _20  and  _21
REMARK    9  A    between atoms: _20  and  _23
REMARK   10  A    between atoms: _23  and  _24
REMARK   11  A    between atoms: _27  and  _29
REMARK   12  A    between atoms: _29  and  _30
REMARK   13  A    between atoms: _29  and  _32
REMARK   14  A    between atoms: _32  and  _33
REMARK   15  A    between atoms: _36  and  _38
REMARK   16  A    between atoms: _38  and  _39
REMARK   17  A    between atoms: _38  and  _41
REMARK   18  A    between atoms: _41  and  _42
REMARK   19  A    between atoms: _45  and  _47
REMARK   20  A    between atoms: _47  and  _48
REMARK   21  A    between atoms: _47  and  _50
REMARK   22  A    between atoms: _50  and  _51
REMARK   23  A    between atoms: _54  and  _56
REMARK   24  A    between atoms: _56  and  _57
REMARK   25  A    between atoms: _59  and  _61
REMARK   26  A    between atoms: _61  and  _62
REMARK   27  A    between atoms: _65  and  _67
REMARK   28  A    between atoms: _67  and  _68
REMARK   29  A    between atoms: _67  and  _70
REMARK   30  A    between atoms: _70  and  _71
REMARK   31  A    between atoms: _74  and  _76
REMARK   32  A    between atoms: _76  and  _77
REMARK   33  A    between atoms: _76  and  _79
REMARK   34  A    between atoms: _79  and  _80
REMARK   35  A    between atoms: _83  and  _85
REMARK   36  A    between atoms: _85  and  _86
REMARK   37  A    between atoms: _85  and  _88
REMARK   38  A    between atoms: _88  and  _89
REMARK   39  A    between atoms: _92  and  _94
REMARK   40  A    between atoms: _94  and  _95
REMARK   41  A    between atoms: _94  and  _97
REMARK   42  A    between atoms: _100  and  _102
REMARK   43  A    between atoms: _102  and  _103
REMARK   44  A    between atoms: _102  and  _105
REMARK   45  A    between atoms: _105  and  _106
REMARK   46  A    between atoms: _109  and  _111
REMARK   47  A    between atoms: _111  and  _112
REMARK   48  A    between atoms: _111  and  _114
REMARK   49  A    between atoms: _114  and  _115
REMARK   50  A    between atoms: _115  and  _116
REMARK   51  A    between atoms: _116  and  _117
REMARK   52  A    between atoms: _117  and  _118
REMARK   53  A    between atoms: _122  and  _124
REMARK   54  A    between atoms: _124  and  _125
REMARK   55  A    between atoms: _124  and  _127
REMARK   56  A    between atoms: _127  and  _128
REMARK   57  A    between atoms: _128  and  _129
REMARK   58  A    between atoms: _131  and  _133
REMARK   59  A    between atoms: _133  and  _134
REMARK   60  A    between atoms: _133  and  _136
REMARK   61  A    between atoms: _136  and  _137
REMARK   62  A    between atoms: _140  and  _142
REMARK   63  A    between atoms: _142  and  _143
REMARK   64  A    between atoms: _145  and  _147
REMARK   65  A    between atoms: _147  and  _148
REMARK   66  A    between atoms: _150  and  _152
REMARK   67  A    between atoms: _152  and  _153
REMARK   68  A    between atoms: _152  and  _155
REMARK   69  A    between atoms: _155  and  _156
REMARK   70  A    between atoms: _159  and  _161
REMARK   71  A    between atoms: _161  and  _162
REMARK   72  A    between atoms: _164  and  _166
REMARK   73  A    between atoms: _166  and  _167
REMARK   74  A    between atoms: _169  and  _171
REMARK   75  A    between atoms: _171  and  _172
REMARK   76  A    between atoms: _171  and  _174
REMARK   77  A    between atoms: _174  and  _175
REMARK   78  A    between atoms: _181  and  _183
REMARK   79  A    between atoms: _183  and  _184
REMARK   80  A    between atoms: _183  and  _186
REMARK   81  A    between atoms: _186  and  _187
REMARK   82  A    between atoms: _190  and  _192
REMARK   83  A    between atoms: _192  and  _193
REMARK   84  A    between atoms: _192  and  _195
REMARK   85  A    between atoms: _198  and  _200
REMARK   86  A    between atoms: _200  and  _201
REMARK   87  A    between atoms: _200  and  _203
REMARK   88  A    between atoms: _203  and  _204
REMARK   89  A    between atoms: _208  and  _209
REMARK   90  A    between atoms: _214  and  _216
REMARK   91  A    between atoms: _216  and  _217
REMARK   92  A    between atoms: _216  and  _219
REMARK   93  A    between atoms: _219  and  _220
REMARK   94  A    between atoms: _224  and  _225
REMARK   95  A    between atoms: _230  and  _232
REMARK   96  A    between atoms: _232  and  _233
REMARK   97  A    between atoms: _232  and  _235
REMARK   98  A    between atoms: _238  and  _240
REMARK   99  A    between atoms: _240  and  _241
REMARK  100  A    between atoms: _240  and  _243
REMARK  101  A    between atoms: _243  and  _244
REMARK  102  A    between atoms: _249  and  _251
REMARK  103  A    between atoms: _251  and  _252
REMARK  104  A    between atoms: _251  and  _254
REMARK  105  A    between atoms: _254  and  _255
REMARK  106  A    between atoms: _258  and  _260
REMARK  107  A    between atoms: _260  and  _261
REMARK  108  A    between atoms: _260  and  _263
REMARK  109  A    between atoms: _263  and  _264
REMARK  110  A    between atoms: _267  and  _269
REMARK  111  A    between atoms: _269  and  _270
REMARK  112  A    between atoms: _272  and  _274
REMARK  113  A    between atoms: _274  and  _275
REMARK  114  A    between atoms: _274  and  _277
REMARK  115  A    between atoms: _277  and  _278
REMARK  116  A    between atoms: _278  and  _279
REMARK  117  A    between atoms: _279  and  _280
REMARK  118  A    between atoms: _289  and  _291
REMARK  119  A    between atoms: _291  and  _292
REMARK  120  A    between atoms: _291  and  _294
REMARK  121  A    between atoms: _294  and  _295
REMARK  122  A    between atoms: _300  and  _302
REMARK  123  A    between atoms: _302  and  _303
REMARK  124  A    between atoms: _302  and  _305
REMARK  125  A    between atoms: _305  and  _306
REMARK  126  A    between atoms: _306  and  _307
REMARK  127  A    between atoms: _307  and  _308
REMARK  128  A    between atoms: _317  and  _319
REMARK  129  A    between atoms: _319  and  _320
REMARK  130  A    between atoms: _319  and  _322
REMARK  131  A    between atoms: _322  and  _323
REMARK  132  A    between atoms: _326  and  _328
REMARK  133  A    between atoms: _328  and  _329
REMARK  134  A    between atoms: _328  and  _331
REMARK  135  A    between atoms: _331  and  _332
REMARK  136  A    between atoms: _335  and  _337
REMARK  137  A    between atoms: _337  and  _338
REMARK  138  A    between atoms: _337  and  _340
REMARK  139  A    between atoms: _340  and  _341
REMARK  140  A    between atoms: _344  and  _346
REMARK  141  A    between atoms: _346  and  _347
REMARK  142  A    between atoms: _346  and  _349
REMARK  143  A    between atoms: _349  and  _350
REMARK  144  A    between atoms: _353  and  _355
REMARK  145  A    between atoms: _355  and  _356
REMARK  146  A    between atoms: _355  and  _358
REMARK  147  A    between atoms: _358  and  _359
REMARK  148  A    between atoms: _362  and  _364
REMARK  149  A    between atoms: _364  and  _365
REMARK  150  A    between atoms: _367  and  _369
REMARK  151  A    between atoms: _369  and  _370
REMARK  152  A    between atoms: _373  and  _375
REMARK  153  A    between atoms: _375  and  _376
REMARK  154  A    between atoms: _375  and  _378
REMARK  155  A    between atoms: _378  and  _379
REMARK  156  A    between atoms: _382  and  _384
REMARK  157  A    between atoms: _384  and  _385
REMARK  158  A    between atoms: _384  and  _387
REMARK  159  A    between atoms: _387  and  _388
REMARK  160  A    between atoms: _391  and  _393
REMARK  161  A    between atoms: _393  and  _394
REMARK  162  A    between atoms: _393  and  _396
REMARK  163  A    between atoms: _396  and  _397
REMARK  164  A    between atoms: _400  and  _402
REMARK  165  A    between atoms: _402  and  _403
REMARK  166  A    between atoms: _402  and  _405
REMARK  167  A    between atoms: _408  and  _410
REMARK  168  A    between atoms: _410  and  _411
REMARK  169  A    between atoms: _410  and  _413
REMARK  170  A    between atoms: _413  and  _414
REMARK  171  A    between atoms: _414  and  _415
REMARK  172  A    between atoms: _415  and  _416
REMARK  173  A    between atoms: _416  and  _417
REMARK  174  A    between atoms: _421  and  _423
REMARK  175  A    between atoms: _423  and  _424
REMARK  176  A    between atoms: _423  and  _426
REMARK  177  A    between atoms: _426  and  _427
REMARK  178  A    between atoms: _427  and  _428
REMARK  179  A    between atoms: _430  and  _432
REMARK  180  A    between atoms: _432  and  _433
REMARK  181  A    between atoms: _432  and  _435
REMARK  182  A    between atoms: _435  and  _436
REMARK  183  A    between atoms: _439  and  _441
REMARK  184  A    between atoms: _441  and  _442
REMARK  185  A    between atoms: _444  and  _446
REMARK  186  A    between atoms: _446  and  _447
REMARK  187  A    between atoms: _449  and  _451
REMARK  188  A    between atoms: _451  and  _452
REMARK  189  A    between atoms: _451  and  _454
REMARK  190  A    between atoms: _454  and  _455
REMARK  191  A    between atoms: _458  and  _460
REMARK  192  A    between atoms: _460  and  _461
REMARK  193  A    between atoms: _463  and  _465
REMARK  194  A    between atoms: _465  and  _466
REMARK  195  A    between atoms: _468  and  _470
REMARK  196  A    between atoms: _470  and  _471
REMARK  197  A    between atoms: _470  and  _473
REMARK  198  A    between atoms: _473  and  _474
REMARK  199  A    between atoms: _480  and  _482
REMARK  200  A    between atoms: _482  and  _483
REMARK  201  A    between atoms: _482  and  _485
REMARK  202  A    between atoms: _485  and  _486
REMARK  203  A    between atoms: _489  and  _491
REMARK  204  A    between atoms: _491  and  _492
REMARK  205  A    between atoms: _491  and  _494
REMARK  206  A    between atoms: _497  and  _499
REMARK  207  A    between atoms: _499  and  _500
REMARK  208  A    between atoms: _499  and  _502
REMARK  209  A    between atoms: _502  and  _503
REMARK  210  A    between atoms: _506  and  _508
REMARK  211  A    between atoms: _508  and  _509
REMARK  212  A    between atoms: _508  and  _511
REMARK  213  A    between atoms: _511  and  _512
REMARK  214  A    between atoms: _516  and  _517
REMARK  215  A    between atoms: _522  and  _524
REMARK  216  A    between atoms: _524  and  _525
REMARK  217  A    between atoms: _524  and  _527
REMARK  218  A    between atoms: _530  and  _532
REMARK  219  A    between atoms: _532  and  _533
REMARK  220  A    between atoms: _532  and  _535
REMARK  221  A    between atoms: _535  and  _536
REMARK  222  A    between atoms: _541  and  _543
REMARK  223  A    between atoms: _543  and  _544
REMARK  224  A    between atoms: _543  and  _546
REMARK  225  A    between atoms: _546  and  _547
REMARK  226  A    between atoms: _550  and  _552
REMARK  227  A    between atoms: _552  and  _553
REMARK  228  A    between atoms: _552  and  _555
REMARK  229  A    between atoms: _555  and  _556
REMARK  230  A    between atoms: _559  and  _561
REMARK  231  A    between atoms: _561  and  _562
REMARK  232  A    between atoms: _564  and  _566
REMARK  233  A    between atoms: _566  and  _567
REMARK  234  A    between atoms: _566  and  _569
REMARK  235  A    between atoms: _569  and  _570
REMARK  236  A    between atoms: _570  and  _571
REMARK  237  A    between atoms: _571  and  _572
REMARK  238  A    between atoms: _581  and  _583
REMARK  239  A    between atoms: _583  and  _584
REMARK  240  A    between atoms: _583  and  _586
REMARK  241  A    between atoms: _586  and  _587
REMARK                            x       y       z     vdW  Elec       q    Type
REMARK                         _______ _______ _______ _____ _____    ______ ____
ROOT
ATOM      1  CA  LEU A   1      10.648 -12.456 -29.591  0.00  0.00    +0.133 C 
ENDROOT
BRANCH   1   2
ATOM      2  N   LEU A   1      11.085 -11.453 -28.613  0.00  0.00    -0.239 NA
ATOM      3  H   LEU A   1      10.512 -10.596 -28.474  0.00  0.00    +0.142 HD
ENDBRANCH   1   2
BRANCH   1   4
ATOM      4  C   LEU A   1      11.274 -12.112 -30.921  0.00  0.00    +0.224 C 
ATOM      5  O   LEU A   1      11.311 -10.939 -31.319  0.00  0.00    -0.287 OA
ENDBRANCH   1   4
BRANCH   1   6
ATOM      6  CB  LEU A   1       9.125 -12.458 -29.713  0.00  0.00    +0.025 C 
BRANCH   6   7
ATOM      7  CG  LEU A   1       8.370 -12.927 -28.477  0.00  0.00    +0.002 C 
ATOM      8  CD2 LEU A   1       8.520 -14.429 -28.236  0.00  0.00    +0.000 C 
ATOM      9  CD1 LEU A   1       6.896 -12.515 -28.607  0.00  0.00    +0.000 C 
ENDBRANCH   6   7
ENDBRANCH   1   6
TORSDOF 4
REMARK  Name = ../refined-set-2016/2pk6/2pk6_pocket.pdb
REMARK  241 active torsions:
REMARK  status: ('A' for Active; 'I' for Inactive)
REMARK    1  A    between atoms: _1  and  _3
REMARK    2  A    between atoms: _3  and  _4
REMARK    3  A    between atoms: _3  and  _6
REMARK    4  A    between atoms: _6  and  _7
REMARK    5  A    between atoms: _7  and  _8
REMARK    6  A    between atoms: _8  and  _9
REMARK    7  A    between atoms: _18  and  _20
REMARK    8  A    between atoms: _20  and  _21
REMARK    9  A    between atoms: _20  and  _23
REMARK   10  A    between atoms: _23  and  _24
REMARK   11  A    between atoms: _27  and  _29
REMARK   12  A    between atoms: _29  and  _30
REMARK   13  A    between atoms: _29  and  _32
REMARK   14  A    between atoms: _32  and  _33
REMARK   15  A    between atoms: _36  and  _38
REMARK   16  A    between atoms: _38  and  _39
REMARK   17  A    between atoms: _38  and  _41
REMARK   18  A    between atoms: _41  and  _42
REMARK   19  A    between atoms: _45  and  _47
REMARK   20  A    between atoms: _47  and  _48
REMARK   21  A    between atoms: _47  and  _50
REMARK   22  A    between atoms: _50  and  _51
REMARK   23  A    between atoms: _54  and  _56
REMARK   24  A    between atoms: _56  and  _57
REMARK   25  A    between atoms: _59  and  _61
REMARK   26  A    between atoms: _61  and  _62
REMARK   27  A    between atoms: _65  and  _67
REMARK   28  A    between atoms: _67  and  _68
REMARK   29  A    between atoms: _67  and  _70
REMARK   30  A    between atoms: _70  and  _71
REMARK   31  A    between atoms: _74  and  _76
REMARK   32  A    between atoms: _76  and  _77
REMARK   33  A    between atoms: _76  and  _79
REMARK   34  A    between atoms: _79  and  _80
REMARK   35  A    between atoms: _83  and  _85
REMARK   36  A    between atoms: _85  and  _86
REMARK   37  A    between atoms: _85  and  _88
REMARK   38  A    between atoms: _88  and  _89
REMARK   39  A    between atoms: _92  and  _94
REMARK   40  A    between atoms: _94  and  _95
REMARK   41  A    between atoms: _94  and  _97
REMARK   42  A    between atoms: _100  and  _102
REMARK   43  A    between atoms: _102  and  _103
REMARK   44  A    between atoms: _102  and  _105
REMARK   45  A    between atoms: _105  and  _106
REMARK   46  A    between atoms: _109  and  _111
REMARK   47  A    between atoms: _111  and  _112
REMARK   48  A    between atoms: _111  and  _114
REMARK   49  A    between atoms: _114  and  _115
REMARK   50  A    between atoms: _115  and  _116
REMARK   51  A    between atoms: _116  and  _117
REMARK   52  A    between atoms: _117  and  _118
REMARK   53  A    between atoms: _122  and  _124
REMARK   54  A    between atoms: _124  and  _125
REMARK   55  A    between atoms: _124  and  _127
REMARK   56  A    between atoms: _127  and  _128
REMARK   57  A    between atoms: _128  and  _129
REMARK   58  A    between atoms: _131  and  _133
REMARK   59  A    between atoms: _133  and  _134
REMARK   60  A    between atoms: _133  and  _136
REMARK   61  A    between atoms: _136  and  _137
REMARK   62  A    between atoms: _140  and  _142
REMARK   63  A    between atoms: _142  and  _143
REMARK   64  A    between atoms: _145  and  _147
REMARK   65  A    between atoms: _147  and  _148
REMARK   66  A    between atoms: _150  and  _152
REMARK   67  A    between atoms: _152  and  _153
REMARK   68  A    between atoms: _152  and  _155
REMARK   69  A    between atoms: _155  and  _156
REMARK   70  A    between atoms: _159  and  _161
REMARK   71  A    between atoms: _161  and  _162
REMARK   72  A    between atoms: _164  and  _166
REMARK   73  A    between atoms: _166  and  _167
REMARK   74  A    between atoms: _169  and  _171
REMARK   75  A    between atoms: _171  and  _172
REMARK   76  A    between atoms: _171  and  _174
REMARK   77  A    between atoms: _174  and  _175
REMARK   78  A    between atoms: _181  and  _183
REMARK   79  A    between atoms: _183  and  _184
REMARK   80  A    between atoms: _183  and  _186
REMARK   81  A    between atoms: _186  and  _187
REMARK   82  A    between atoms: _190  and  _192
REMARK   83  A    between atoms: _192  and  _193
REMARK   84  A    between atoms: _192  and  _195
REMARK   85  A    between atoms: _198  and  _200
REMARK   86  A    between atoms: _200  and  _201
REMARK   87  A    between atoms: _200  and  _203
REMARK   88  A    between atoms: _203  and  _204
REMARK   89  A    between atoms: _208  and  _209
REMARK   90  A    between atoms: _214  and  _216
REMARK   91  A    between atoms: _216  and  _217
REMARK   92  A    between atoms: _216  and  _219
REMARK   93  A    between atoms: _219  and  _220
REMARK   94  A    between atoms: _224  and  _225
REMARK   95  A    between atoms: _230  and  _232
REMARK   96  A    between atoms: _232  and  _233
REMARK   97  A    between atoms: _232  and  _235
REMARK   98  A    between atoms: _238  and  _240
REMARK   99  A    between atoms: _240  and  _241
REMARK  100  A    between atoms: _240  and  _243
REMARK  101  A    between atoms: _243  and  _244
REMARK  102  A    between atoms: _249  and  _251
REMARK  103  A    between atoms: _251  and  _252
REMARK  104  A    between atoms: _251  and  _254
REMARK  105  A    between atoms: _254  and  _255
REMARK  106  A    between atoms: _258  and  _260
REMARK  107  A    between atoms: _260  and  _261
REMARK  108  A    between atoms: _260  and  _263
REMARK  109  A    between atoms: _263  and  _264
REMARK  110  A    between atoms: _267  and  _269
REMARK  111  A    between atoms: _269  and  _270
REMARK  112  A    between atoms: _272  and  _274
REMARK  113  A    between atoms: _274  and  _275
REMARK  114  A    between atoms: _274  and  _277
REMARK  115  A    between atoms: _277  and  _278
REMARK  116  A    between atoms: _278  and  _279
REMARK  117  A    between atoms: _279  and  _280
REMARK  118  A    between atoms: _289  and  _291
REMARK  119  A    between atoms: _291  and  _292
REMARK  120  A    between atoms: _291  and  _294
REMARK  121  A    between atoms: _294  and  _295
REMARK  122  A    between atoms: _300  and  _302
REMARK  123  A    between atoms: _302  and  _303
REMARK  124  A    between atoms: _302  and  _305
REMARK  125  A    between atoms: _305  and  _306
REMARK  126  A    between atoms: _306  and  _307
REMARK  127  A    between atoms: _307  and  _308
REMARK  128  A    between atoms: _317  and  _319
REMARK  129  A    between atoms: _319  and  _320
REMARK  130  A    between atoms: _319  and  _322
REMARK  131  A    between atoms: _322  and  _323
REMARK  132  A    between atoms: _326  and  _328
REMARK  133  A    between atoms: _328  and  _329
REMARK  134  A    between atoms: _328  and  _331
REMARK  135  A    between atoms: _331  and  _332
REMARK  136  A    between atoms: _335  and  _337
REMARK  137  A    between atoms: _337  and  _338
REMARK  138  A    between atoms: _337  and  _340
REMARK  139  A    between atoms: _340  and  _341
REMARK  140  A    between atoms: _344  and  _346
REMARK  141  A    between atoms: _346  and  _347
REMARK  142  A    between atoms: _346  and  _349
REMARK  143  A    between atoms: _349  and  _350
REMARK  144  A    between atoms: _353  and  _355
REMARK  145  A    between atoms: _355  and  _356
REMARK  146  A    between atoms: _355  and  _358
REMARK  147  A    between atoms: _358  and  _359
REMARK  148  A    between atoms: _362  and  _364
REMARK  149  A    between atoms: _364  and  _365
REMARK  150  A    between atoms: _367  and  _369
REMARK  151  A    between atoms: _369  and  _370
REMARK  152  A    between atoms: _373  and  _375
REMARK  153  A    between atoms: _375  and  _376
REMARK  154  A    between atoms: _375  and  _378
REMARK  155  A    between atoms: _378  and  _379
REMARK  156  A    between atoms: _382  and  _384
REMARK  157  A    between atoms: _384  and  _385
REMARK  158  A    between atoms: _384  and  _387
REMARK  159  A    between atoms: _387  and  _388
REMARK  160  A    between atoms: _391  and  _393
REMARK  161  A    between atoms: _393  and  _394
REMARK  162  A    between atoms: _393  and  _396
REMARK  163  A    between atoms: _396  and  _397
REMARK  164  A    between atoms: _400  and  _402
REMARK  165  A    between atoms: _402  and  _403
REMARK  166  A    between atoms: _402  and  _405
REMARK  167  A    between atoms: _408  and  _410
REMARK  168  A    between atoms: _410  and  _411
REMARK  169  A    between atoms: _410  and  _413
REMARK  170  A    between atoms: _413  and  _414
REMARK  171  A    between atoms: _414  and  _415
REMARK  172  A    between atoms: _415  and  _416
REMARK  173  A    between atoms: _416  and  _417
REMARK  174  A    between atoms: _421  and  _423
REMARK  175  A    between atoms: _423  and  _424
REMARK  176  A    between atoms: _423  and  _426
REMARK  177  A    between atoms: _426  and  _427
REMARK  178  A    between atoms: _427  and  _428
REMARK  179  A    between atoms: _430  and  _432
REMARK  180  A    between atoms: _432  and  _433
REMARK  181  A    between atoms: _432  and  _435
REMARK  182  A    between atoms: _435  and  _436
REMARK  183  A    between atoms: _439  and  _441
REMARK  184  A    between atoms: _441  and  _442
REMARK  185  A    between atoms: _444  and  _446
REMARK  186  A    between atoms: _446  and  _447
REMARK  187  A    between atoms: _449  and  _451
REMARK  188  A    between atoms: _451  and  _452
REMARK  189  A    between atoms: _451  and  _454
REMARK  190  A    between atoms: _454  and  _455
REMARK  191  A    between atoms: _458  and  _460
REMARK  192  A    between atoms: _460  and  _461
REMARK  193  A    between atoms: _463  and  _465
REMARK  194  A    between atoms: _465  and  _466
REMARK  195  A    between atoms: _468  and  _470
REMARK  196  A    between atoms: _470  and  _471
REMARK  197  A    between atoms: _470  and  _473
REMARK  198  A    between atoms: _473  and  _474
REMARK  199  A    between atoms: _480  and  _482
REMARK  200  A    between atoms: _482  and  _483
REMARK  201  A    between atoms: _482  and  _485
REMARK  202  A    between atoms: _485  and  _486
REMARK  203  A    between atoms: _489  and  _491
REMARK  204  A    between atoms: _491  and  _492
REMARK  205  A    between atoms: _491  and  _494
REMARK  206  A    between atoms: _497  and  _499
REMARK  207  A    between atoms: _499  and  _500
REMARK  208  A    between atoms: _499  and  _502
REMARK  209  A    between atoms: _502  and  _503
REMARK  210  A    between atoms: _506  and  _508
REMARK  211  A    between atoms: _508  and  _509
REMARK  212  A    between atoms: _508  and  _511
REMARK  213  A    between atoms: _511  and  _512
REMARK  214  A    between atoms: _516  and  _517
REMARK  215  A    between atoms: _522  and  _524
REMARK  216  A    between atoms: _524  and  _525
REMARK  217  A    between atoms: _524  and  _527
REMARK  218  A    between atoms: _530  and  _532
REMARK  219  A    between atoms: _532  and  _533
REMARK  220  A    between atoms: _532  and  _535
REMARK  221  A    between atoms: _535  and  _536
REMARK  222  A    between atoms: _541  and  _543
REMARK  223  A    between atoms: _543  and  _544
REMARK  224  A    between atoms: _543  and  _546
REMARK  225  A    between atoms: _546  and  _547
REMARK  226  A    between atoms: _550  and  _552
REMARK  227  A    between atoms: _552  and  _553
REMARK  228  A    between atoms: _552  and  _555
REMARK  229  A    between atoms: _555  and  _556
REMARK  230  A    between atoms: _559  and  _561
REMARK  231  A    between atoms: _561  and  _562
REMARK  232  A    between atoms: _564  and  _566
REMARK  233  A    between atoms: _566  and  _567
REMARK  234  A    between atoms: _566  and  _569
REMARK  235  A    between atoms: _569  and  _570
REMARK  236  A    between atoms: _570  and  _571
REMARK  237  A    between atoms: _571  and  _572
REMARK  238  A    between atoms: _581  and  _583
REMARK  239  A    between atoms: _583  and  _584
REMARK  240  A    between atoms: _583  and  _586
REMARK  241  A    between atoms: _586  and  _587
REMARK                            x       y       z     vdW  Elec       q    Type
REMARK                         _______ _______ _______ _____ _____    ______ ____
ROOT
ATOM      1  C   GLY A   5      18.155 -19.392 -18.851  0.00  0.00    +0.243 C 
ATOM      2  O   GLY A   5      18.110 -20.268 -17.969  0.00  0.00    -0.273 OA
ATOM      3  N   ALA A   6      18.210 -19.688 -20.159  0.00  0.00    -0.297 N 
ATOM      4  H   ALA A   6      18.339 -18.919 -20.847  0.00  0.00    +0.150 HD
ENDROOT
BRANCH   3   5
ATOM      5  CA  ALA A   6      18.094 -21.064 -20.643  0.00  0.00    +0.149 C 
ATOM      6  CB  ALA A   6      17.084 -21.134 -21.795  0.00  0.00    +0.031 C 
BRANCH   5   7
ATOM      7  C   ALA A   6      19.452 -21.573 -21.112  0.00  0.00    +0.241 C 
ATOM      8  N   ASP A   7      19.920 -22.705 -20.543  0.00  0.00    -0.297 N 
ATOM      9  H   ASP A   7      19.393 -23.182 -19.784  0.00  0.00    +0.150 HD
ATOM     10  O   ALA A   6      20.081 -20.947 -21.939  0.00  0.00    -0.273 OA
BRANCH   8  11
ATOM     11  CA  ASP A   7      21.195 -23.239 -21.030  0.00  0.00    +0.160 C 
BRANCH  11  12
ATOM     12  C   ASP A   7      21.098 -23.663 -22.492  0.00  0.00    +0.241 C 
ATOM     13  N   ASP A   8      19.936 -24.192 -22.857  0.00  0.00    -0.297 N 
ATOM     14  H   ASP A   8      19.116 -24.098 -22.225  0.00  0.00    +0.150 HD
ATOM     15  O   ASP A   7      22.063 -23.557 -23.270  0.00  0.00    -0.273 OA
BRANCH  13  16
ATOM     16  CA  ASP A   8      19.782 -24.897 -24.113  0.00  0.00    +0.160 C 
BRANCH  16  17
ATOM     17  C   ASP A   8      18.648 -24.272 -24.906  0.00  0.00    +0.241 C 
ATOM     18  O   ASP A   8      17.911 -23.456 -24.391  0.00  0.00    -0.273 OA
ATOM     19  N   THR A   9      18.487 -24.744 -26.143  0.00  0.00    -0.295 N 
ATOM     20  H   THR A   9      19.127 -25.496 -26.468  0.00  0.00    +0.150 HD
BRANCH  19  21
ATOM     21  CA  THR A   9      17.457 -24.261 -27.071  0.00  0.00    +0.176 C 
BRANCH  21  22
ATOM     22  C   THR A   9      16.378 -25.339 -27.178  0.00  0.00    +0.243 C 
ATOM     23  N   VAL A  10      15.112 -24.946 -26.980  0.00  0.00    -0.298 N 
ATOM     24  H   VAL A  10      14.901 -23.938 -26.832  0.00  0.00    +0.150 HD
ATOM     25  O   THR A   9      16.703 -26.502 -27.433  0.00  0.00    -0.273 OA
BRANCH  23  26
ATOM     26  CA  VAL A  10      14.031 -25.920 -26.971  0.00  0.00    +0.137 C 
BRANCH  26  27
ATOM     27  CB  VAL A  10      13.422 -26.011 -25.509  0.00  0.00    +0.026 C 
ATOM     28  CG2 VAL A  10      14.545 -26.033 -24.465  0.00  0.00    +0.002 C 
ATOM     29  CG1 VAL A  10      12.502 -27.258 -25.357  0.00  0.00    +0.002 C 
ENDBRANCH  26  27
BRANCH  26  30
ATOM     30  C   VAL A  10      12.901 -25.407 -27.840  0.00  0.00    +0.227 C 
ATOM     31  O   VAL A  10      12.431 -24.277 -27.680  0.00  0.00    -0.286 OA
ENDBRANCH  26  30
ENDBRANCH  23  26
ENDBRANCH  21  22
BRANCH  21  32
ATOM     32  CB  THR A   9      18.107 -24.005 -28.432  0.00  0.00    +0.137 C 
ATOM     33  CG2 THR A   9      17.033 -23.704 -29.515  0.00  0.00    +0.034 C 
BRANCH  32  34
ATOM     34  OG1 THR A   9      18.967 -22.878 -28.283  0.00  0.00    -0.382 OA
ATOM     35  HG1 THR A   9      19.655 -23.078 -27.600  0.00  0.00    +0.210 HD
ENDBRANCH  32  34
ENDBRANCH  21  32
ENDBRANCH  19  21
ENDBRANCH  16  17
BRANCH  16  36
ATOM     36  CB  ASP A   8      19.402 -26.376 -23.859  0.00  0.00    +0.143 C 
BRANCH  36  37
ATOM     37  CG  ASP A   8      20.336 -27.063 -22.861  0.00  0.00    +0.367 C 
ATOM     38  OD2 ASP A   8      19.840 -27.555 -21.807  0.00  0.00    -0.246 OA
ATOM     39  OD1 ASP A   8      21.546 -27.113 -23.132  0.00  0.00    -0.246 OA
ENDBRANCH  36  37
ENDBRANCH  16  36
ENDBRANCH  13  16
ENDBRANCH  11  12
BRANCH  11  40
ATOM     40  CB  ASP A   7      21.624 -24.465 -20.237  0.00  0.00    +0.143 C 
BRANCH  40  41
ATOM     41  CG  ASP A   7      21.789 -24.193 -18.762  0.00  0.00    +0.367 C 
ATOM     42  OD2 ASP A   7      21.662 -25.185 -18.002  0.00  0.00    -0.246 OA
ATOM     43  OD1 ASP A   7      22.017 -23.035 -18.332  0.00  0.00    -0.246 OA
ENDBRANCH  40  41
ENDBRANCH  11  40
ENDBRANCH   8  11
ENDBRANCH   5   7
ENDBRANCH   3   5
BRANCH   1  44
ATOM     44  CA  GLY A   5      18.165 -17.929 -18.490  0.00  0.00    +0.176 C 
BRANCH  44  47
ATOM     45  C   THR A   4      19.531 -16.749 -20.134  0.00  0.00    +0.243 C 
ATOM     46  O   THR A   4      20.579 -17.169 -19.626  0.00  0.00    -0.273 OA
ATOM     47  N   GLY A   5      18.308 -17.031 -19.657  0.00  0.00    -0.295 N 
ATOM     48  H   GLY A   5      17.465 -16.620 -20.106  0.00  0.00    +0.150 HD
BRANCH  45  49
ATOM     49  CA  THR A   4      19.603 -15.833 -21.356  0.00  0.00    +0.176 C 
BRANCH  49  51
ATOM     50  C   ASP A   3      17.723 -16.720 -22.633  0.00  0.00    +0.241 C 
ATOM     51  N   THR A   4      18.279 -15.670 -21.985  0.00  0.00    -0.295 N 
ATOM     52  H   THR A   4      17.779 -14.760 -21.931  0.00  0.00    +0.150 HD
ATOM     53  O   ASP A   3      18.250 -17.832 -22.727  0.00  0.00    -0.273 OA
BRANCH  50  54
ATOM     54  CA  ASP A   3      16.377 -16.484 -23.321  0.00  0.00    +0.160 C 
BRANCH  54  57
ATOM     55  C   LEU A   2      15.997 -15.082 -25.302  0.00  0.00    +0.241 C 
ATOM     56  O   LEU A   2      15.568 -14.116 -24.611  0.00  0.00    -0.273 OA
ATOM     57  N   ASP A   3      16.554 -16.194 -24.776  0.00  0.00    -0.297 N 
ATOM     58  H   ASP A   3      17.101 -16.842 -25.378  0.00  0.00    +0.150 HD
BRANCH  55  59
ATOM     59  CA  LEU A   2      15.897 -14.997 -26.809  0.00  0.00    +0.149 C 
BRANCH  59  62
ATOM     60  C   LEU A   1      13.775 -16.140 -27.114  0.00  0.00    +0.238 C 
ATOM     61  O   LEU A   1      14.268 -17.231 -26.845  0.00  0.00    -0.274 OA
ATOM     62  N   LEU A   2      14.485 -15.001 -27.153  0.00  0.00    -0.297 N 
ATOM     63  H   LEU A   2      14.020 -14.113 -27.432  0.00  0.00    +0.150 HD
BRANCH  60  64
ATOM     64  CA  LEU A   1      12.244 -16.067 -27.360  0.00  0.00    +0.145 C 
BRANCH  64  65
ATOM     65  N   LEU A   1      11.880 -17.052 -28.394  0.00  0.00    -0.238 NA
ATOM     66  H   LEU A   1      11.851 -18.061 -28.144  0.00  0.00    +0.142 HD
ENDBRANCH  64  65
BRANCH  64  67
ATOM     67  CB  LEU A   1      11.506 -16.476 -26.073  0.00  0.00    +0.026 C 
BRANCH  67  68
ATOM     68  CG  LEU A   1      11.647 -15.577 -24.847  0.00  0.00    +0.002 C 
ATOM     69  CD2 LEU A   1      11.041 -16.378 -23.672  0.00  0.00    +0.000 C 
ATOM     70  CD1 LEU A   1      10.861 -14.303 -25.139  0.00  0.00    +0.000 C 
ENDBRANCH  67  68
ENDBRANCH  64  67
ENDBRANCH  60  64
ENDBRANCH  59  62
BRANCH  59  71
ATOM     71  CB  LEU A   2      16.584 -13.716 -27.284  0.00  0.00    +0.029 C 
BRANCH  71  72
ATOM     72  CG  LEU A   2      16.469 -13.527 -28.791  0.00  0.00    +0.002 C 
ATOM     73  CD2 LEU A   2      17.116 -12.208 -29.235  0.00  0.00    +0.000 C 
ATOM     74  CD1 LEU A   2      17.057 -14.689 -29.575  0.00  0.00    +0.000 C 
ENDBRANCH  71  72
ENDBRANCH  59  71
ENDBRANCH  55  59
ENDBRANCH  54  57
BRANCH  54  75
ATOM     75  CB  ASP A   3      15.471 -17.712 -23.153  0.00  0.00    +0.143 C 
BRANCH  75  76
ATOM     76  CG  ASP A   3      15.123 -17.990 -21.713  0.00  0.00    +0.367 C 
ATOM     77  OD2 ASP A   3      15.725 -17.367 -20.847  0.00  0.00    -0.246 OA
ATOM     78  OD1 ASP A   3      14.244 -18.852 -21.501  0.00  0.00    -0.246 OA
ENDBRANCH  75  76
ENDBRANCH  54  75
ENDBRANCH  50  54
ENDBRANCH  49  51
BRANCH  49  79
ATOM     79  CB  THR A   4      20.208 -14.481 -20.964  0.00  0.00    +0.137 C 
ATOM     80  CG2 THR A   4      20.415 -13.635 -22.192  0.00  0.00    +0.034 C 
BRANCH  79  81
ATOM     81  OG1 THR A   4      19.284 -13.836 -20.085  0.00  0.00    -0.382 OA
ATOM     82  HG1 THR A   4      19.145 -14.399 -19.283  0.00  0.00    +0.210 HD
ENDBRANCH  79  81
ENDBRANCH  49  79
ENDBRANCH  45  49
ENDBRANCH  44  47
ENDBRANCH   1  44
TORSDOF 35
REMARK  Name = ../refined-set-2016/2pk6/2pk6_pocket.pdb
REMARK  241 active torsions:
REMARK  status: ('A' for Active; 'I' for Inactive)
REMARK    1  A    between atoms: _1  and  _3
REMARK    2  A    between atoms: _3  and  _4
REMARK    3  A    between atoms: _3  and  _6
REMARK    4  A    between atoms: _6  and  _7
REMARK    5  A    between atoms: _7  and  _8
REMARK    6  A    between atoms: _8  and  _9
REMARK    7  A    between atoms: _18  and  _20
REMARK    8  A    between atoms: _20  and  _21
REMARK    9  A    between atoms: _20  and  _23
REMARK   10  A    between atoms: _23  and  _24
REMARK   11  A    between atoms: _27  and  _29
REMARK   12  A    between atoms: _29  and  _30
REMARK   13  A    between atoms: _29  and  _32
REMARK   14  A    between atoms: _32  and  _33
REMARK   15  A    between atoms: _36  and  _38
REMARK   16  A    between atoms: _38  and  _39
REMARK   17  A    between atoms: _38  and  _41
REMARK   18  A    between atoms: _41  and  _42
REMARK   19  A    between atoms: _45  and  _47
REMARK   20  A    between atoms: _47  and  _48
REMARK   21  A    between atoms: _47  and  _50
REMARK   22  A    between atoms: _50  and  _51
REMARK   23  A    between atoms: _54  and  _56
REMARK   24  A    between atoms: _56  and  _57
REMARK   25  A    between atoms: _59  and  _61
REMARK   26  A    between atoms: _61  and  _62
REMARK   27  A    between atoms: _65  and  _67
REMARK   28  A    between atoms: _67  and  _68
REMARK   29  A    between atoms: _67  and  _70
REMARK   30  A    between atoms: _70  and  _71
REMARK   31  A    between atoms: _74  and  _76
REMARK   32  A    between atoms: _76  and  _77
REMARK   33  A    between atoms: _76  and  _79
REMARK   34  A    between atoms: _79  and  _80
REMARK   35  A    between atoms: _83  and  _85
REMARK   36  A    between atoms: _85  and  _86
REMARK   37  A    between atoms: _85  and  _88
REMARK   38  A    between atoms: _88  and  _89
REMARK   39  A    between atoms: _92  and  _94
REMARK   40  A    between atoms: _94  and  _95
REMARK   41  A    between atoms: _94  and  _97
REMARK   42  A    between atoms: _100  and  _102
REMARK   43  A    between atoms: _102  and  _103
REMARK   44  A    between atoms: _102  and  _105
REMARK   45  A    between atoms: _105  and  _106
REMARK   46  A    between atoms: _109  and  _111
REMARK   47  A    between atoms: _111  and  _112
REMARK   48  A    between atoms: _111  and  _114
REMARK   49  A    between atoms: _114  and  _115
REMARK   50  A    between atoms: _115  and  _116
REMARK   51  A    between atoms: _116  and  _117
REMARK   52  A    between atoms: _117  and  _118
REMARK   53  A    between atoms: _122  and  _124
REMARK   54  A    between atoms: _124  and  _125
REMARK   55  A    between atoms: _124  and  _127
REMARK   56  A    between atoms: _127  and  _128
REMARK   57  A    between atoms: _128  and  _129
REMARK   58  A    between atoms: _131  and  _133
REMARK   59  A    between atoms: _133  and  _134
REMARK   60  A    between atoms: _133  and  _136
REMARK   61  A    between atoms: _136  and  _137
REMARK   62  A    between atoms: _140  and  _142
REMARK   63  A    between atoms: _142  and  _143
REMARK   64  A    between atoms: _145  and  _147
REMARK   65  A    between atoms: _147  and  _148
REMARK   66  A    between atoms: _150  and  _152
REMARK   67  A    between atoms: _152  and  _153
REMARK   68  A    between atoms: _152  and  _155
REMARK   69  A    between atoms: _155  and  _156
REMARK   70  A    between atoms: _159  and  _161
REMARK   71  A    between atoms: _161  and  _162
REMARK   72  A    between atoms: _164  and  _166
REMARK   73  A    between atoms: _166  and  _167
REMARK   74  A    between atoms: _169  and  _171
REMARK   75  A    between atoms: _171  and  _172
REMARK   76  A    between atoms: _171  and  _174
REMARK   77  A    between atoms: _174  and  _175
REMARK   78  A    between atoms: _181  and  _183
REMARK   79  A    between atoms: _183  and  _184
REMARK   80  A    between atoms: _183  and  _186
REMARK   81  A    between atoms: _186  and  _187
REMARK   82  A    between atoms: _190  and  _192
REMARK   83  A    between atoms: _192  and  _193
REMARK   84  A    between atoms: _192  and  _195
REMARK   85  A    between atoms: _198  and  _200
REMARK   86  A    between atoms: _200  and  _201
REMARK   87  A    between atoms: _200  and  _203
REMARK   88  A    between atoms: _203  and  _204
REMARK   89  A    between atoms: _208  and  _209
REMARK   90  A    between atoms: _214  and  _216
REMARK   91  A    between atoms: _216  and  _217
REMARK   92  A    between atoms: _216  and  _219
REMARK   93  A    between atoms: _219  and  _220
REMARK   94  A    between atoms: _224  and  _225
REMARK   95  A    between atoms: _230  and  _232
REMARK   96  A    between atoms: _232  and  _233
REMARK   97  A    between atoms: _232  and  _235
REMARK   98  A    between atoms: _238  and  _240
REMARK   99  A    between atoms: _240  and  _241
REMARK  100  A    between atoms: _240  and  _243
REMARK  101  A    between atoms: _243  and  _244
REMARK  102  A    between atoms: _249  and  _251
REMARK  103  A    between atoms: _251  and  _252
REMARK  104  A    between atoms: _251  and  _254
REMARK  105  A    between atoms: _254  and  _255
REMARK  106  A    between atoms: _258  and  _260
REMARK  107  A    between atoms: _260  and  _261
REMARK  108  A    between atoms: _260  and  _263
REMARK  109  A    between atoms: _263  and  _264
REMARK  110  A    between atoms: _267  and  _269
REMARK  111  A    between atoms: _269  and  _270
REMARK  112  A    between atoms: _272  and  _274
REMARK  113  A    between atoms: _274  and  _275
REMARK  114  A    between atoms: _274  and  _277
REMARK  115  A    between atoms: _277  and  _278
REMARK  116  A    between atoms: _278  and  _279
REMARK  117  A    between atoms: _279  and  _280
REMARK  118  A    between atoms: _289  and  _291
REMARK  119  A    between atoms: _291  and  _292
REMARK  120  A    between atoms: _291  and  _294
REMARK  121  A    between atoms: _294  and  _295
REMARK  122  A    between atoms: _300  and  _302
REMARK  123  A    between atoms: _302  and  _303
REMARK  124  A    between atoms: _302  and  _305
REMARK  125  A    between atoms: _305  and  _306
REMARK  126  A    between atoms: _306  and  _307
REMARK  127  A    between atoms: _307  and  _308
REMARK  128  A    between atoms: _317  and  _319
REMARK  129  A    between atoms: _319  and  _320
REMARK  130  A    between atoms: _319  and  _322
REMARK  131  A    between atoms: _322  and  _323
REMARK  132  A    between atoms: _326  and  _328
REMARK  133  A    between atoms: _328  and  _329
REMARK  134  A    between atoms: _328  and  _331
REMARK  135  A    between atoms: _331  and  _332
REMARK  136  A    between atoms: _335  and  _337
REMARK  137  A    between atoms: _337  and  _338
REMARK  138  A    between atoms: _337  and  _340
REMARK  139  A    between atoms: _340  and  _341
REMARK  140  A    between atoms: _344  and  _346
REMARK  141  A    between atoms: _346  and  _347
REMARK  142  A    between atoms: _346  and  _349
REMARK  143  A    between atoms: _349  and  _350
REMARK  144  A    between atoms: _353  and  _355
REMARK  145  A    between atoms: _355  and  _356
REMARK  146  A    between atoms: _355  and  _358
REMARK  147  A    between atoms: _358  and  _359
REMARK  148  A    between atoms: _362  and  _364
REMARK  149  A    between atoms: _364  and  _365
REMARK  150  A    between atoms: _367  and  _369
REMARK  151  A    between atoms: _369  and  _370
REMARK  152  A    between atoms: _373  and  _375
REMARK  153  A    between atoms: _375  and  _376
REMARK  154  A    between atoms: _375  and  _378
REMARK  155  A    between atoms: _378  and  _379
REMARK  156  A    between atoms: _382  and  _384
REMARK  157  A    between atoms: _384  and  _385
REMARK  158  A    between atoms: _384  and  _387
REMARK  159  A    between atoms: _387  and  _388
REMARK  160  A    between atoms: _391  and  _393
REMARK  161  A    between atoms: _393  and  _394
REMARK  162  A    between atoms: _393  and  _396
REMARK  163  A    between atoms: _396  and  _397
REMARK  164  A    between atoms: _400  and  _402
REMARK  165  A    between atoms: _402  and  _403
REMARK  166  A    between atoms: _402  and  _405
REMARK  167  A    between atoms: _408  and  _410
REMARK  168  A    between atoms: _410  and  _411
REMARK  169  A    between atoms: _410  and  _413
REMARK  170  A    between atoms: _413  and  _414
REMARK  171  A    between atoms: _414  and  _415
REMARK  172  A    between atoms: _415  and  _416
REMARK  173  A    between atoms: _416  and  _417
REMARK  174  A    between atoms: _421  and  _423
REMARK  175  A    between atoms: _423  and  _424
REMARK  176  A    between atoms: _423  and  _426
REMARK  177  A    between atoms: _426  and  _427
REMARK  178  A    between atoms: _427  and  _428
REMARK  179  A    between atoms: _430  and  _432
REMARK  180  A    between atoms: _432  and  _433
REMARK  181  A    between atoms: _432  and  _435
REMARK  182  A    between atoms: _435  and  _436
REMARK  183  A    between atoms: _439  and  _441
REMARK  184  A    between atoms: _441  and  _442
REMARK  185  A    between atoms: _444  and  _446
REMARK  186  A    between atoms: _446  and  _447
REMARK  187  A    between atoms: _449  and  _451
REMARK  188  A    between atoms: _451  and  _452
REMARK  189  A    between atoms: _451  and  _454
REMARK  190  A    between atoms: _454  and  _455
REMARK  191  A    between atoms: _458  and  _460
REMARK  192  A    between atoms: _460  and  _461
REMARK  193  A    between atoms: _463  and  _465
REMARK  194  A    between atoms: _465  and  _466
REMARK  195  A    between atoms: _468  and  _470
REMARK  196  A    between atoms: _470  and  _471
REMARK  197  A    between atoms: _470  and  _473
REMARK  198  A    between atoms: _473  and  _474
REMARK  199  A    between atoms: _480  and  _482
REMARK  200  A    between atoms: _482  and  _483
REMARK  201  A    between atoms: _482  and  _485
REMARK  202  A    between atoms: _485  and  _486
REMARK  203  A    between atoms: _489  and  _491
REMARK  204  A    between atoms: _491  and  _492
REMARK  205  A    between atoms: _491  and  _494
REMARK  206  A    between atoms: _497  and  _499
REMARK  207  A    between atoms: _499  and  _500
REMARK  208  A    between atoms: _499  and  _502
REMARK  209  A    between atoms: _502  and  _503
REMARK  210  A    between atoms: _506  and  _508
REMARK  211  A    between atoms: _508  and  _509
REMARK  212  A    between atoms: _508  and  _511
REMARK  213  A    between atoms: _511  and  _512
REMARK  214  A    between atoms: _516  and  _517
REMARK  215  A    between atoms: _522  and  _524
REMARK  216  A    between atoms: _524  and  _525
REMARK  217  A    between atoms: _524  and  _527
REMARK  218  A    between atoms: _530  and  _532
REMARK  219  A    between atoms: _532  and  _533
REMARK  220  A    between atoms: _532  and  _535
REMARK  221  A    between atoms: _535  and  _536
REMARK  222  A    between atoms: _541  and  _543
REMARK  223  A    between atoms: _543  and  _544
REMARK  224  A    between atoms: _543  and  _546
REMARK  225  A    between atoms: _546  and  _547
REMARK  226  A    between atoms: _550  and  _552
REMARK  227  A    between atoms: _552  and  _553
REMARK  228  A    between atoms: _552  and  _555
REMARK  229  A    between atoms: _555  and  _556
REMARK  230  A    between atoms: _559  and  _561
REMARK  231  A    between atoms: _561  and  _562
REMARK  232  A    between atoms: _564  and  _566
REMARK  233  A    between atoms: _566  and  _567
REMARK  234  A    between atoms: _566  and  _569
REMARK  235  A    between atoms: _569  and  _570
REMARK  236  A    between atoms: _570  and  _571
REMARK  237  A    between atoms: _571  and  _572
REMARK  238  A    between atoms: _581  and  _583
REMARK  239  A    between atoms: _583  and  _584
REMARK  240  A    between atoms: _583  and  _586
REMARK  241  A    between atoms: _586  and  _587
REMARK                            x       y       z     vdW  Elec       q    Type
REMARK                         _______ _______ _______ _____ _____    ______ ____
ROOT
ATOM      1  C   GLY A   5      11.844 -24.614 -14.082  0.00  0.00    +0.243 C 
ATOM      2  O   GLY A   5      11.867 -25.293 -13.048  0.00  0.00    -0.273 OA
ATOM      3  N   ILE A   6      11.143 -23.512 -14.199  0.00  0.00    -0.297 N 
ATOM      4  H   ILE A   6      11.066 -23.027 -15.116  0.00  0.00    +0.150 HD
ENDROOT
BRANCH   3   5
ATOM      5  CA  ILE A   6      10.482 -22.987 -13.031  0.00  0.00    +0.149 C 
BRANCH   5   6
ATOM      6  C   ILE A   6       9.459 -23.902 -12.425  0.00  0.00    +0.241 C 
ATOM      7  O   ILE A   6       9.234 -23.864 -11.204  0.00  0.00    -0.273 OA
ATOM      8  N   GLY A   7       8.827 -24.729 -13.246  0.00  0.00    -0.295 N 
ATOM      9  H   GLY A   7       9.080 -24.767 -14.254  0.00  0.00    +0.150 HD
BRANCH   8  10
ATOM     10  CA  GLY A   7       7.747 -25.605 -12.703  0.00  0.00    +0.176 C 
BRANCH  10  11
ATOM     11  C   GLY A   7       8.115 -27.078 -12.502  0.00  0.00    +0.243 C 
ATOM     12  O   GLY A   7       7.278 -27.867 -12.061  0.00  0.00    -0.273 OA
ATOM     13  N   GLY A   8       9.361 -27.437 -12.832  0.00  0.00    -0.295 N 
ATOM     14  H   GLY A   8      10.027 -26.702 -13.146  0.00  0.00    +0.150 HD
BRANCH  13  15
ATOM     15  CA  GLY A   8       9.822 -28.825 -12.768  0.00  0.00    +0.176 C 
BRANCH  15  16
ATOM     16  C   GLY A   8      10.508 -29.218 -14.057  0.00  0.00    +0.243 C 
ATOM     17  N   PHE A   9      10.491 -30.521 -14.329  0.00  0.00    -0.297 N 
ATOM     18  H   PHE A   9       9.878 -31.146 -13.768  0.00  0.00    +0.150 HD
ATOM     19  O   GLY A   8      11.080 -28.377 -14.741  0.00  0.00    -0.273 OA
BRANCH  17  20
ATOM     20  CA  PHE A   9      11.308 -31.097 -15.393  0.00  0.00    +0.153 C 
BRANCH  20  21
ATOM     21  C   PHE A   9      10.418 -31.641 -16.494  0.00  0.00    +0.241 C 
ATOM     22  O   PHE A   9       9.291 -32.111 -16.238  0.00  0.00    -0.273 OA
ATOM     23  N   ILE A  10      10.936 -31.604 -17.713  0.00  0.00    -0.298 N 
ATOM     24  H   ILE A  10      11.832 -31.103 -17.880  0.00  0.00    +0.150 HD
BRANCH  23  25
ATOM     25  CA  ILE A  10      10.260 -32.257 -18.813  0.00  0.00    +0.137 C 
BRANCH  25  26
ATOM     26  C   ILE A  10      11.304 -33.061 -19.586  0.00  0.00    +0.227 C 
ATOM     27  O   ILE A  10      12.505 -32.755 -19.537  0.00  0.00    -0.286 OA
ENDBRANCH  25  26
BRANCH  25  28
ATOM     28  CB  ILE A  10       9.550 -31.282 -19.771  0.00  0.00    +0.026 C 
ATOM     29  CG2 ILE A  10       8.441 -30.526 -19.028  0.00  0.00    +0.002 C 
BRANCH  28  30
ATOM     30  CG1 ILE A  10      10.539 -30.307 -20.456  0.00  0.00    +0.002 C 
ATOM     31  CD1 ILE A  10       9.937 -29.426 -21.524  0.00  0.00    +0.000 C 
ENDBRANCH  28  30
ENDBRANCH  25  28
ENDBRANCH  23  25
ENDBRANCH  20  21
BRANCH  20  32
ATOM     32  CB  PHE A   9      12.195 -32.208 -14.788  0.00  0.00    +0.055 C 
BRANCH  32  33
ATOM     33  CG  PHE A   9      13.359 -31.682 -13.994  0.00  0.00    -0.020 A 
ATOM     34  CD2 PHE A   9      13.189 -31.254 -12.680  0.00  0.00    -0.004 A 
ATOM     35  CE2 PHE A   9      14.277 -30.719 -11.964  0.00  0.00    -0.000 A 
ATOM     36  CZ  PHE A   9      15.526 -30.619 -12.564  0.00  0.00    -0.000 A 
ATOM     37  CE1 PHE A   9      15.710 -31.031 -13.878  0.00  0.00    -0.000 A 
ATOM     38  CD1 PHE A   9      14.623 -31.558 -14.594  0.00  0.00    -0.004 A 
ENDBRANCH  32  33
ENDBRANCH  20  32
ENDBRANCH  17  20
ENDBRANCH  15  16
ENDBRANCH  13  15
ENDBRANCH  10  11
ENDBRANCH   8  10
ENDBRANCH   5   6
BRANCH   5  39
ATOM     39  CB  ILE A   6       9.816 -21.662 -13.419  0.00  0.00    +0.027 C 
ATOM     40  CG2 ILE A   6       8.565 -21.892 -14.299  0.00  0.00    +0.002 C 
BRANCH  39  41
ATOM     41  CG1 ILE A   6       9.618 -20.784 -12.203  0.00  0.00    +0.002 C 
ATOM     42  CD1 ILE A   6      10.847 -19.960 -11.960  0.00  0.00    +0.000 C 
ENDBRANCH  39  41
ENDBRANCH   5  39
ENDBRANCH   3   5
BRANCH   1  43
ATOM     43  CA  GLY A   5      12.608 -24.957 -15.341  0.00  0.00    +0.176 C 
BRANCH  43  45
ATOM     44  C   GLY A   4      14.120 -26.818 -15.661  0.00  0.00    +0.243 C 
ATOM     45  N   GLY A   5      12.901 -26.370 -15.364  0.00  0.00    -0.295 N 
ATOM     46  H   GLY A   5      12.146 -27.051 -15.145  0.00  0.00    +0.150 HD
ATOM     47  O   GLY A   4      15.106 -26.104 -15.906  0.00  0.00    -0.273 OA
BRANCH  44  48
ATOM     48  CA  GLY A   4      14.229 -28.306 -15.629  0.00  0.00    +0.176 C 
BRANCH  48  50
ATOM     49  C   ILE A   3      14.563 -29.655 -17.624  0.00  0.00    +0.241 C 
ATOM     50  N   GLY A   4      15.058 -28.769 -16.759  0.00  0.00    -0.295 N 
ATOM     51  H   GLY A   4      16.025 -28.406 -16.880  0.00  0.00    +0.150 HD
ATOM     52  O   ILE A   3      13.394 -30.085 -17.585  0.00  0.00    -0.273 OA
BRANCH  49  53
ATOM     53  CA  ILE A   3      15.532 -30.169 -18.668  0.00  0.00    +0.149 C 
BRANCH  53  56
ATOM     54  C   MET A   2      16.171 -32.514 -18.865  0.00  0.00    +0.241 C 
ATOM     55  O   MET A   2      17.360 -32.262 -18.660  0.00  0.00    -0.273 OA
ATOM     56  N   ILE A   3      15.227 -31.571 -18.948  0.00  0.00    -0.297 N 
ATOM     57  H   ILE A   3      14.259 -31.840 -19.216  0.00  0.00    +0.150 HD
BRANCH  54  58
ATOM     58  CA  MET A   2      15.714 -33.943 -19.143  0.00  0.00    +0.149 C 
BRANCH  58  60
ATOM     59  C   LYS A   1      16.322 -34.859 -21.329  0.00  0.00    +0.238 C 
ATOM     60  N   MET A   2      16.675 -34.528 -20.093  0.00  0.00    -0.297 N 
ATOM     61  H   MET A   2      17.656 -34.686 -19.787  0.00  0.00    +0.150 HD
ATOM     62  O   LYS A   1      15.157 -34.859 -21.744  0.00  0.00    -0.274 OA
BRANCH  59  63
ATOM     63  CA  LYS A   1      17.478 -35.282 -22.211  0.00  0.00    +0.145 C 
BRANCH  63  64
ATOM     64  N   LYS A   1      17.035 -36.337 -23.093  0.00  0.00    -0.238 NA
ATOM     65  H   LYS A   1      16.034 -36.381 -23.371  0.00  0.00    +0.142 HD
ENDBRANCH  63  64
BRANCH  63  66
ATOM     66  CB  LYS A   1      17.977 -34.082 -23.022  0.00  0.00    +0.026 C 
BRANCH  66  67
ATOM     67  CG  LYS A   1      18.499 -32.914 -22.192  0.00  0.00    -0.000 C 
BRANCH  67  68
ATOM     68  CD  LYS A   1      19.948 -33.031 -21.847  0.00  0.00    -0.024 C 
BRANCH  68  69
ATOM     69  CE  LYS A   1      20.519 -31.744 -21.169  0.00  0.00    -0.086 C 
BRANCH  69  70
ATOM     70  NZ  LYS A   1      20.922 -30.654 -22.070  0.00  0.00    +0.380 N 
ATOM     71  HZ1 LYS A   1      21.283 -29.857 -21.508  0.00  0.00    -0.089 HD
ATOM     72  HZ2 LYS A   1      20.100 -30.343 -22.626  0.00  0.00    -0.089 HD
ATOM     73  HZ3 LYS A   1      21.667 -30.994 -22.711  0.00  0.00    -0.089 HD
ENDBRANCH  69  70
ENDBRANCH  68  69
ENDBRANCH  67  68
ENDBRANCH  66  67
ENDBRANCH  63  66
ENDBRANCH  59  63
ENDBRANCH  58  60
BRANCH  58  74
ATOM     74  CB  MET A   2      15.642 -34.797 -17.867  0.00  0.00    +0.041 C 
BRANCH  74  75
ATOM     75  CG  MET A   2      14.568 -35.936 -17.945  0.00  0.00    +0.060 C 
BRANCH  75  76
ATOM     76  SD  MET A   2      13.073 -35.384 -17.049  0.00  0.00    -0.139 S 
ATOM     77  CE  MET A   2      13.617 -35.595 -15.340  0.00  0.00    +0.069 C 
ENDBRANCH  75  76
ENDBRANCH  74  75
ENDBRANCH  58  74
ENDBRANCH  54  58
ENDBRANCH  53  56
BRANCH  53  78
ATOM     78  CB  ILE A   3      15.507 -29.301 -19.914  0.00  0.00    +0.027 C 
ATOM     79  CG2 ILE A   3      16.673 -29.716 -20.813  0.00  0.00    +0.002 C 
BRANCH  78  80
ATOM     80  CG1 ILE A   3      14.139 -29.334 -20.646  0.00  0.00    +0.002 C 
ATOM     81  CD1 ILE A   3      14.024 -28.333 -21.798  0.00  0.00    +0.000 C 
ENDBRANCH  78  80
ENDBRANCH  53  78
ENDBRANCH  49  53
ENDBRANCH  48  50
ENDBRANCH  44  48
ENDBRANCH  43  45
ENDBRANCH   1  43
TORSDOF 36
REMARK  Name = ../refined-set-2016/2pk6/2pk6_pocket.pdb
REMARK  241 active torsions:
REMARK  status: ('A' for Active; 'I' for Inactive)
REMARK    1  A    between atoms: _1  and  _3
REMARK    2  A    between atoms: _3  and  _4
REMARK    3  A    between atoms: _3  and  _6
REMARK    4  A    between atoms: _6  and  _7
REMARK    5  A    between atoms: _7  and  _8
REMARK    6  A    between atoms: _8  and  _9
REMARK    7  A    between atoms: _18  and  _20
REMARK    8  A    between atoms: _20  and  _21
REMARK    9  A    between atoms: _20  and  _23
REMARK   10  A    between atoms: _23  and  _24
REMARK   11  A    between atoms: _27  and  _29
REMARK   12  A    between atoms: _29  and  _30
REMARK   13  A    between atoms: _29  and  _32
REMARK   14  A    between atoms: _32  and  _33
REMARK   15  A    between atoms: _36  and  _38
REMARK   16  A    between atoms: _38  and  _39
REMARK   17  A    between atoms: _38  and  _41
REMARK   18  A    between atoms: _41  and  _42
REMARK   19  A    between atoms: _45  and  _47
REMARK   20  A    between atoms: _47  and  _48
REMARK   21  A    between atoms: _47  and  _50
REMARK   22  A    between atoms: _50  and  _51
REMARK   23  A    between atoms: _54  and  _56
REMARK   24  A    between atoms: _56  and  _57
REMARK   25  A    between atoms: _59  and  _61
REMARK   26  A    between atoms: _61  and  _62
REMARK   27  A    between atoms: _65  and  _67
REMARK   28  A    between atoms: _67  and  _68
REMARK   29  A    between atoms: _67  and  _70
REMARK   30  A    between atoms: _70  and  _71
REMARK   31  A    between atoms: _74  and  _76
REMARK   32  A    between atoms: _76  and  _77
REMARK   33  A    between atoms: _76  and  _79
REMARK   34  A    between atoms: _79  and  _80
REMARK   35  A    between atoms: _83  and  _85
REMARK   36  A    between atoms: _85  and  _86
REMARK   37  A    between atoms: _85  and  _88
REMARK   38  A    between atoms: _88  and  _89
REMARK   39  A    between atoms: _92  and  _94
REMARK   40  A    between atoms: _94  and  _95
REMARK   41  A    between atoms: _94  and  _97
REMARK   42  A    between atoms: _100  and  _102
REMARK   43  A    between atoms: _102  and  _103
REMARK   44  A    between atoms: _102  and  _105
REMARK   45  A    between atoms: _105  and  _106
REMARK   46  A    between atoms: _109  and  _111
REMARK   47  A    between atoms: _111  and  _112
REMARK   48  A    between atoms: _111  and  _114
REMARK   49  A    between atoms: _114  and  _115
REMARK   50  A    between atoms: _115  and  _116
REMARK   51  A    between atoms: _116  and  _117
REMARK   52  A    between atoms: _117  and  _118
REMARK   53  A    between atoms: _122  and  _124
REMARK   54  A    between atoms: _124  and  _125
REMARK   55  A    between atoms: _124  and  _127
REMARK   56  A    between atoms: _127  and  _128
REMARK   57  A    between atoms: _128  and  _129
REMARK   58  A    between atoms: _131  and  _133
REMARK   59  A    between atoms: _133  and  _134
REMARK   60  A    between atoms: _133  and  _136
REMARK   61  A    between atoms: _136  and  _137
REMARK   62  A    between atoms: _140  and  _142
REMARK   63  A    between atoms: _142  and  _143
REMARK   64  A    between atoms: _145  and  _147
REMARK   65  A    between atoms: _147  and  _148
REMARK   66  A    between atoms: _150  and  _152
REMARK   67  A    between atoms: _152  and  _153
REMARK   68  A    between atoms: _152  and  _155
REMARK   69  A    between atoms: _155  and  _156
REMARK   70  A    between atoms: _159  and  _161
REMARK   71  A    between atoms: _161  and  _162
REMARK   72  A    between atoms: _164  and  _166
REMARK   73  A    between atoms: _166  and  _167
REMARK   74  A    between atoms: _169  and  _171
REMARK   75  A    between atoms: _171  and  _172
REMARK   76  A    between atoms: _171  and  _174
REMARK   77  A    between atoms: _174  and  _175
REMARK   78  A    between atoms: _181  and  _183
REMARK   79  A    between atoms: _183  and  _184
REMARK   80  A    between atoms: _183  and  _186
REMARK   81  A    between atoms: _186  and  _187
REMARK   82  A    between atoms: _190  and  _192
REMARK   83  A    between atoms: _192  and  _193
REMARK   84  A    between atoms: _192  and  _195
REMARK   85  A    between atoms: _198  and  _200
REMARK   86  A    between atoms: _200  and  _201
REMARK   87  A    between atoms: _200  and  _203
REMARK   88  A    between atoms: _203  and  _204
REMARK   89  A    between atoms: _208  and  _209
REMARK   90  A    between atoms: _214  and  _216
REMARK   91  A    between atoms: _216  and  _217
REMARK   92  A    between atoms: _216  and  _219
REMARK   93  A    between atoms: _219  and  _220
REMARK   94  A    between atoms: _224  and  _225
REMARK   95  A    between atoms: _230  and  _232
REMARK   96  A    between atoms: _232  and  _233
REMARK   97  A    between atoms: _232  and  _235
REMARK   98  A    between atoms: _238  and  _240
REMARK   99  A    between atoms: _240  and  _241
REMARK  100  A    between atoms: _240  and  _243
REMARK  101  A    between atoms: _243  and  _244
REMARK  102  A    between atoms: _249  and  _251
REMARK  103  A    between atoms: _251  and  _252
REMARK  104  A    between atoms: _251  and  _254
REMARK  105  A    between atoms: _254  and  _255
REMARK  106  A    between atoms: _258  and  _260
REMARK  107  A    between atoms: _260  and  _261
REMARK  108  A    between atoms: _260  and  _263
REMARK  109  A    between atoms: _263  and  _264
REMARK  110  A    between atoms: _267  and  _269
REMARK  111  A    between atoms: _269  and  _270
REMARK  112  A    between atoms: _272  and  _274
REMARK  113  A    between atoms: _274  and  _275
REMARK  114  A    between atoms: _274  and  _277
REMARK  115  A    between atoms: _277  and  _278
REMARK  116  A    between atoms: _278  and  _279
REMARK  117  A    between atoms: _279  and  _280
REMARK  118  A    between atoms: _289  and  _291
REMARK  119  A    between atoms: _291  and  _292
REMARK  120  A    between atoms: _291  and  _294
REMARK  121  A    between atoms: _294  and  _295
REMARK  122  A    between atoms: _300  and  _302
REMARK  123  A    between atoms: _302  and  _303
REMARK  124  A    between atoms: _302  and  _305
REMARK  125  A    between atoms: _305  and  _306
REMARK  126  A    between atoms: _306  and  _307
REMARK  127  A    between atoms: _307  and  _308
REMARK  128  A    between atoms: _317  and  _319
REMARK  129  A    between atoms: _319  and  _320
REMARK  130  A    between atoms: _319  and  _322
REMARK  131  A    between atoms: _322  and  _323
REMARK  132  A    between atoms: _326  and  _328
REMARK  133  A    between atoms: _328  and  _329
REMARK  134  A    between atoms: _328  and  _331
REMARK  135  A    between atoms: _331  and  _332
REMARK  136  A    between atoms: _335  and  _337
REMARK  137  A    between atoms: _337  and  _338
REMARK  138  A    between atoms: _337  and  _340
REMARK  139  A    between atoms: _340  and  _341
REMARK  140  A    between atoms: _344  and  _346
REMARK  141  A    between atoms: _346  and  _347
REMARK  142  A    between atoms: _346  and  _349
REMARK  143  A    between atoms: _349  and  _350
REMARK  144  A    between atoms: _353  and  _355
REMARK  145  A    between atoms: _355  and  _356
REMARK  146  A    between atoms: _355  and  _358
REMARK  147  A    between atoms: _358  and  _359
REMARK  148  A    between atoms: _362  and  _364
REMARK  149  A    between atoms: _364  and  _365
REMARK  150  A    between atoms: _367  and  _369
REMARK  151  A    between atoms: _369  and  _370
REMARK  152  A    between atoms: _373  and  _375
REMARK  153  A    between atoms: _375  and  _376
REMARK  154  A    between atoms: _375  and  _378
REMARK  155  A    between atoms: _378  and  _379
REMARK  156  A    between atoms: _382  and  _384
REMARK  157  A    between atoms: _384  and  _385
REMARK  158  A    between atoms: _384  and  _387
REMARK  159  A    between atoms: _387  and  _388
REMARK  160  A    between atoms: _391  and  _393
REMARK  161  A    between atoms: _393  and  _394
REMARK  162  A    between atoms: _393  and  _396
REMARK  163  A    between atoms: _396  and  _397
REMARK  164  A    between atoms: _400  and  _402
REMARK  165  A    between atoms: _402  and  _403
REMARK  166  A    between atoms: _402  and  _405
REMARK  167  A    between atoms: _408  and  _410
REMARK  168  A    between atoms: _410  and  _411
REMARK  169  A    between atoms: _410  and  _413
REMARK  170  A    between atoms: _413  and  _414
REMARK  171  A    between atoms: _414  and  _415
REMARK  172  A    between atoms: _415  and  _416
REMARK  173  A    between atoms: _416  and  _417
REMARK  174  A    between atoms: _421  and  _423
REMARK  175  A    between atoms: _423  and  _424
REMARK  176  A    between atoms: _423  and  _426
REMARK  177  A    between atoms: _426  and  _427
REMARK  178  A    between atoms: _427  and  _428
REMARK  179  A    between atoms: _430  and  _432
REMARK  180  A    between atoms: _432  and  _433
REMARK  181  A    between atoms: _432  and  _435
REMARK  182  A    between atoms: _435  and  _436
REMARK  183  A    between atoms: _439  and  _441
REMARK  184  A    between atoms: _441  and  _442
REMARK  185  A    between atoms: _444  and  _446
REMARK  186  A    between atoms: _446  and  _447
REMARK  187  A    between atoms: _449  and  _451
REMARK  188  A    between atoms: _451  and  _452
REMARK  189  A    between atoms: _451  and  _454
REMARK  190  A    between atoms: _454  and  _455
REMARK  191  A    between atoms: _458  and  _460
REMARK  192  A    between atoms: _460  and  _461
REMARK  193  A    between atoms: _463  and  _465
REMARK  194  A    between atoms: _465  and  _466
REMARK  195  A    between atoms: _468  and  _470
REMARK  196  A    between atoms: _470  and  _471
REMARK  197  A    between atoms: _470  and  _473
REMARK  198  A    between atoms: _473  and  _474
REMARK  199  A    between atoms: _480  and  _482
REMARK  200  A    between atoms: _482  and  _483
REMARK  201  A    between atoms: _482  and  _485
REMARK  202  A    between atoms: _485  and  _486
REMARK  203  A    between atoms: _489  and  _491
REMARK  204  A    between atoms: _491  and  _492
REMARK  205  A    between atoms: _491  and  _494
REMARK  206  A    between atoms: _497  and  _499
REMARK  207  A    between atoms: _499  and  _500
REMARK  208  A    between atoms: _499  and  _502
REMARK  209  A    between atoms: _502  and  _503
REMARK  210  A    between atoms: _506  and  _508
REMARK  211  A    between atoms: _508  and  _509
REMARK  212  A    between atoms: _508  and  _511
REMARK  213  A    between atoms: _511  and  _512
REMARK  214  A    between atoms: _516  and  _517
REMARK  215  A    between atoms: _522  and  _524
REMARK  216  A    between atoms: _524  and  _525
REMARK  217  A    between atoms: _524  and  _527
REMARK  218  A    between atoms: _530  and  _532
REMARK  219  A    between atoms: _532  and  _533
REMARK  220  A    between atoms: _532  and  _535
REMARK  221  A    between atoms: _535  and  _536
REMARK  222  A    between atoms: _541  and  _543
REMARK  223  A    between atoms: _543  and  _544
REMARK  224  A    between atoms: _543  and  _546
REMARK  225  A    between atoms: _546  and  _547
REMARK  226  A    between atoms: _550  and  _552
REMARK  227  A    between atoms: _552  and  _553
REMARK  228  A    between atoms: _552  and  _555
REMARK  229  A    between atoms: _555  and  _556
REMARK  230  A    between atoms: _559  and  _561
REMARK  231  A    between atoms: _561  and  _562
REMARK  232  A    between atoms: _564  and  _566
REMARK  233  A    between atoms: _566  and  _567
REMARK  234  A    between atoms: _566  and  _569
REMARK  235  A    between atoms: _569  and  _570
REMARK  236  A    between atoms: _570  and  _571
REMARK  237  A    between atoms: _571  and  _572
REMARK  238  A    between atoms: _581  and  _583
REMARK  239  A    between atoms: _583  and  _584
REMARK  240  A    between atoms: _583  and  _586
REMARK  241  A    between atoms: _586  and  _587
REMARK                            x       y       z     vdW  Elec       q    Type
REMARK                         _______ _______ _______ _____ _____    ______ ____
ROOT
ATOM      1  CA  VAL A   1      12.809 -33.698 -24.618  0.00  0.00    +0.133 C 
ENDROOT
BRANCH   1   2
ATOM      2  CB  VAL A   1      13.385 -32.261 -24.607  0.00  0.00    +0.023 C 
ATOM      3  CG2 VAL A   1      12.450 -31.327 -23.849  0.00  0.00    +0.002 C 
ATOM      4  CG1 VAL A   1      14.778 -32.268 -23.961  0.00  0.00    +0.002 C 
ENDBRANCH   1   2
BRANCH   1   5
ATOM      5  N   VAL A   1      12.732 -34.247 -23.255  0.00  0.00    -0.239 NA
ATOM      6  H   VAL A   1      13.590 -34.621 -22.802  0.00  0.00    +0.142 HD
ENDBRANCH   1   5
BRANCH   1   7
ATOM      7  C   VAL A   1      13.714 -34.592 -25.441  0.00  0.00    +0.224 C 
ATOM      8  O   VAL A   1      14.422 -35.447 -24.891  0.00  0.00    -0.287 OA
ENDBRANCH   1   7
TORSDOF 3
REMARK  Name = ../refined-set-2016/2pk6/2pk6_pocket.pdb
REMARK  241 active torsions:
REMARK  status: ('A' for Active; 'I' for Inactive)
REMARK    1  A    between atoms: _1  and  _3
REMARK    2  A    between atoms: _3  and  _4
REMARK    3  A    between atoms: _3  and  _6
REMARK    4  A    between atoms: _6  and  _7
REMARK    5  A    between atoms: _7  and  _8
REMARK    6  A    between atoms: _8  and  _9
REMARK    7  A    between atoms: _18  and  _20
REMARK    8  A    between atoms: _20  and  _21
REMARK    9  A    between atoms: _20  and  _23
REMARK   10  A    between atoms: _23  and  _24
REMARK   11  A    between atoms: _27  and  _29
REMARK   12  A    between atoms: _29  and  _30
REMARK   13  A    between atoms: _29  and  _32
REMARK   14  A    between atoms: _32  and  _33
REMARK   15  A    between atoms: _36  and  _38
REMARK   16  A    between atoms: _38  and  _39
REMARK   17  A    between atoms: _38  and  _41
REMARK   18  A    between atoms: _41  and  _42
REMARK   19  A    between atoms: _45  and  _47
REMARK   20  A    between atoms: _47  and  _48
REMARK   21  A    between atoms: _47  and  _50
REMARK   22  A    between atoms: _50  and  _51
REMARK   23  A    between atoms: _54  and  _56
REMARK   24  A    between atoms: _56  and  _57
REMARK   25  A    between atoms: _59  and  _61
REMARK   26  A    between atoms: _61  and  _62
REMARK   27  A    between atoms: _65  and  _67
REMARK   28  A    between atoms: _67  and  _68
REMARK   29  A    between atoms: _67  and  _70
REMARK   30  A    between atoms: _70  and  _71
REMARK   31  A    between atoms: _74  and  _76
REMARK   32  A    between atoms: _76  and  _77
REMARK   33  A    between atoms: _76  and  _79
REMARK   34  A    between atoms: _79  and  _80
REMARK   35  A    between atoms: _83  and  _85
REMARK   36  A    between atoms: _85  and  _86
REMARK   37  A    between atoms: _85  and  _88
REMARK   38  A    between atoms: _88  and  _89
REMARK   39  A    between atoms: _92  and  _94
REMARK   40  A    between atoms: _94  and  _95
REMARK   41  A    between atoms: _94  and  _97
REMARK   42  A    between atoms: _100  and  _102
REMARK   43  A    between atoms: _102  and  _103
REMARK   44  A    between atoms: _102  and  _105
REMARK   45  A    between atoms: _105  and  _106
REMARK   46  A    between atoms: _109  and  _111
REMARK   47  A    between atoms: _111  and  _112
REMARK   48  A    between atoms: _111  and  _114
REMARK   49  A    between atoms: _114  and  _115
REMARK   50  A    between atoms: _115  and  _116
REMARK   51  A    between atoms: _116  and  _117
REMARK   52  A    between atoms: _117  and  _118
REMARK   53  A    between atoms: _122  and  _124
REMARK   54  A    between atoms: _124  and  _125
REMARK   55  A    between atoms: _124  and  _127
REMARK   56  A    between atoms: _127  and  _128
REMARK   57  A    between atoms: _128  and  _129
REMARK   58  A    between atoms: _131  and  _133
REMARK   59  A    between atoms: _133  and  _134
REMARK   60  A    between atoms: _133  and  _136
REMARK   61  A    between atoms: _136  and  _137
REMARK   62  A    between atoms: _140  and  _142
REMARK   63  A    between atoms: _142  and  _143
REMARK   64  A    between atoms: _145  and  _147
REMARK   65  A    between atoms: _147  and  _148
REMARK   66  A    between atoms: _150  and  _152
REMARK   67  A    between atoms: _152  and  _153
REMARK   68  A    between atoms: _152  and  _155
REMARK   69  A    between atoms: _155  and  _156
REMARK   70  A    between atoms: _159  and  _161
REMARK   71  A    between atoms: _161  and  _162
REMARK   72  A    between atoms: _164  and  _166
REMARK   73  A    between atoms: _166  and  _167
REMARK   74  A    between atoms: _169  and  _171
REMARK   75  A    between atoms: _171  and  _172
REMARK   76  A    between atoms: _171  and  _174
REMARK   77  A    between atoms: _174  and  _175
REMARK   78  A    between atoms: _181  and  _183
REMARK   79  A    between atoms: _183  and  _184
REMARK   80  A    between atoms: _183  and  _186
REMARK   81  A    between atoms: _186  and  _187
REMARK   82  A    between atoms: _190  and  _192
REMARK   83  A    between atoms: _192  and  _193
REMARK   84  A    between atoms: _192  and  _195
REMARK   85  A    between atoms: _198  and  _200
REMARK   86  A    between atoms: _200  and  _201
REMARK   87  A    between atoms: _200  and  _203
REMARK   88  A    between atoms: _203  and  _204
REMARK   89  A    between atoms: _208  and  _209
REMARK   90  A    between atoms: _214  and  _216
REMARK   91  A    between atoms: _216  and  _217
REMARK   92  A    between atoms: _216  and  _219
REMARK   93  A    between atoms: _219  and  _220
REMARK   94  A    between atoms: _224  and  _225
REMARK   95  A    between atoms: _230  and  _232
REMARK   96  A    between atoms: _232  and  _233
REMARK   97  A    between atoms: _232  and  _235
REMARK   98  A    between atoms: _238  and  _240
REMARK   99  A    between atoms: _240  and  _241
REMARK  100  A    between atoms: _240  and  _243
REMARK  101  A    between atoms: _243  and  _244
REMARK  102  A    between atoms: _249  and  _251
REMARK  103  A    between atoms: _251  and  _252
REMARK  104  A    between atoms: _251  and  _254
REMARK  105  A    between atoms: _254  and  _255
REMARK  106  A    between atoms: _258  and  _260
REMARK  107  A    between atoms: _260  and  _261
REMARK  108  A    between atoms: _260  and  _263
REMARK  109  A    between atoms: _263  and  _264
REMARK  110  A    between atoms: _267  and  _269
REMARK  111  A    between atoms: _269  and  _270
REMARK  112  A    between atoms: _272  and  _274
REMARK  113  A    between atoms: _274  and  _275
REMARK  114  A    between atoms: _274  and  _277
REMARK  115  A    between atoms: _277  and  _278
REMARK  116  A    between atoms: _278  and  _279
REMARK  117  A    between atoms: _279  and  _280
REMARK  118  A    between atoms: _289  and  _291
REMARK  119  A    between atoms: _291  and  _292
REMARK  120  A    between atoms: _291  and  _294
REMARK  121  A    between atoms: _294  and  _295
REMARK  122  A    between atoms: _300  and  _302
REMARK  123  A    between atoms: _302  and  _303
REMARK  124  A    between atoms: _302  and  _305
REMARK  125  A    between atoms: _305  and  _306
REMARK  126  A    between atoms: _306  and  _307
REMARK  127  A    between atoms: _307  and  _308
REMARK  128  A    between atoms: _317  and  _319
REMARK  129  A    between atoms: _319  and  _320
REMARK  130  A    between atoms: _319  and  _322
REMARK  131  A    between atoms: _322  and  _323
REMARK  132  A    between atoms: _326  and  _328
REMARK  133  A    between atoms: _328  and  _329
REMARK  134  A    between atoms: _328  and  _331
REMARK  135  A    between atoms: _331  and  _332
REMARK  136  A    between atoms: _335  and  _337
REMARK  137  A    between atoms: _337  and  _338
REMARK  138  A    between atoms: _337  and  _340
REMARK  139  A    between atoms: _340  and  _341
REMARK  140  A    between atoms: _344  and  _346
REMARK  141  A    between atoms: _346  and  _347
REMARK  142  A    between atoms: _346  and  _349
REMARK  143  A    between atoms: _349  and  _350
REMARK  144  A    between atoms: _353  and  _355
REMARK  145  A    between atoms: _355  and  _356
REMARK  146  A    between atoms: _355  and  _358
REMARK  147  A    between atoms: _358  and  _359
REMARK  148  A    between atoms: _362  and  _364
REMARK  149  A    between atoms: _364  and  _365
REMARK  150  A    between atoms: _367  and  _369
REMARK  151  A    between atoms: _369  and  _370
REMARK  152  A    between atoms: _373  and  _375
REMARK  153  A    between atoms: _375  and  _376
REMARK  154  A    between atoms: _375  and  _378
REMARK  155  A    between atoms: _378  and  _379
REMARK  156  A    between atoms: _382  and  _384
REMARK  157  A    between atoms: _384  and  _385
REMARK  158  A    between atoms: _384  and  _387
REMARK  159  A    between atoms: _387  and  _388
REMARK  160  A    between atoms: _391  and  _393
REMARK  161  A    between atoms: _393  and  _394
REMARK  162  A    between atoms: _393  and  _396
REMARK  163  A    between atoms: _396  and  _397
REMARK  164  A    between atoms: _400  and  _402
REMARK  165  A    between atoms: _402  and  _403
REMARK  166  A    between atoms: _402  and  _405
REMARK  167  A    between atoms: _408  and  _410
REMARK  168  A    between atoms: _410  and  _411
REMARK  169  A    between atoms: _410  and  _413
REMARK  170  A    between atoms: _413  and  _414
REMARK  171  A    between atoms: _414  and  _415
REMARK  172  A    between atoms: _415  and  _416
REMARK  173  A    between atoms: _416  and  _417
REMARK  174  A    between atoms: _421  and  _423
REMARK  175  A    between atoms: _423  and  _424
REMARK  176  A    between atoms: _423  and  _426
REMARK  177  A    between atoms: _426  and  _427
REMARK  178  A    between atoms: _427  and  _428
REMARK  179  A    between atoms: _430  and  _432
REMARK  180  A    between atoms: _432  and  _433
REMARK  181  A    between atoms: _432  and  _435
REMARK  182  A    between atoms: _435  and  _436
REMARK  183  A    between atoms: _439  and  _441
REMARK  184  A    between atoms: _441  and  _442
REMARK  185  A    between atoms: _444  and  _446
REMARK  186  A    between atoms: _446  and  _447
REMARK  187  A    between atoms: _449  and  _451
REMARK  188  A    between atoms: _451  and  _452
REMARK  189  A    between atoms: _451  and  _454
REMARK  190  A    between atoms: _454  and  _455
REMARK  191  A    between atoms: _458  and  _460
REMARK  192  A    between atoms: _460  and  _461
REMARK  193  A    between atoms: _463  and  _465
REMARK  194  A    between atoms: _465  and  _466
REMARK  195  A    between atoms: _468  and  _470
REMARK  196  A    between atoms: _470  and  _471
REMARK  197  A    between atoms: _470  and  _473
REMARK  198  A    between atoms: _473  and  _474
REMARK  199  A    between atoms: _480  and  _482
REMARK  200  A    between atoms: _482  and  _483
REMARK  201  A    between atoms: _482  and  _485
REMARK  202  A    between atoms: _485  and  _486
REMARK  203  A    between atoms: _489  and  _491
REMARK  204  A    between atoms: _491  and  _492
REMARK  205  A    between atoms: _491  and  _494
REMARK  206  A    between atoms: _497  and  _499
REMARK  207  A    between atoms: _499  and  _500
REMARK  208  A    between atoms: _499  and  _502
REMARK  209  A    between atoms: _502  and  _503
REMARK  210  A    between atoms: _506  and  _508
REMARK  211  A    between atoms: _508  and  _509
REMARK  212  A    between atoms: _508  and  _511
REMARK  213  A    between atoms: _511  and  _512
REMARK  214  A    between atoms: _516  and  _517
REMARK  215  A    between atoms: _522  and  _524
REMARK  216  A    between atoms: _524  and  _525
REMARK  217  A    between atoms: _524  and  _527
REMARK  218  A    between atoms: _530  and  _532
REMARK  219  A    between atoms: _532  and  _533
REMARK  220  A    between atoms: _532  and  _535
REMARK  221  A    between atoms: _535  and  _536
REMARK  222  A    between atoms: _541  and  _543
REMARK  223  A    between atoms: _543  and  _544
REMARK  224  A    between atoms: _543  and  _546
REMARK  225  A    between atoms: _546  and  _547
REMARK  226  A    between atoms: _550  and  _552
REMARK  227  A    between atoms: _552  and  _553
REMARK  228  A    between atoms: _552  and  _555
REMARK  229  A    between atoms: _555  and  _556
REMARK  230  A    between atoms: _559  and  _561
REMARK  231  A    between atoms: _561  and  _562
REMARK  232  A    between atoms: _564  and  _566
REMARK  233  A    between atoms: _566  and  _567
REMARK  234  A    between atoms: _566  and  _569
REMARK  235  A    between atoms: _569  and  _570
REMARK  236  A    between atoms: _570  and  _571
REMARK  237  A    between atoms: _571  and  _572
REMARK  238  A    between atoms: _581  and  _583
REMARK  239  A    between atoms: _583  and  _584
REMARK  240  A    between atoms: _583  and  _586
REMARK  241  A    between atoms: _586  and  _587
REMARK                            x       y       z     vdW  Elec       q    Type
REMARK                         _______ _______ _______ _____ _____    ______ ____
ROOT
ATOM      1  CA  LEU A   1      15.868 -29.904 -28.103  0.00  0.00    +0.133 C 
ENDROOT
BRANCH   1   2
ATOM      2  N   LEU A   1      16.734 -28.969 -28.814  0.00  0.00    -0.239 NA
ATOM      3  H   LEU A   1      16.837 -28.000 -28.451  0.00  0.00    +0.142 HD
ENDBRANCH   1   2
BRANCH   1   4
ATOM      4  C   LEU A   1      14.436 -29.710 -28.556  0.00  0.00    +0.224 C 
ATOM      5  O   LEU A   1      14.033 -28.576 -28.872  0.00  0.00    -0.287 OA
ENDBRANCH   1   4
BRANCH   1   6
ATOM      6  CB  LEU A   1      15.929 -29.679 -26.583  0.00  0.00    +0.025 C 
BRANCH   6   7
ATOM      7  CG  LEU A   1      17.348 -29.520 -26.029  0.00  0.00    +0.002 C 
ATOM      8  CD2 LEU A   1      17.371 -29.242 -24.554  0.00  0.00    +0.000 C 
ATOM      9  CD1 LEU A   1      18.211 -30.743 -26.327  0.00  0.00    +0.000 C 
ENDBRANCH   6   7
ENDBRANCH   1   6
TORSDOF 4
REMARK  Name = ../refined-set-2016/2pk6/2pk6_pocket.pdb
REMARK  241 active torsions:
REMARK  status: ('A' for Active; 'I' for Inactive)
REMARK    1  A    between atoms: _1  and  _3
REMARK    2  A    between atoms: _3  and  _4
REMARK    3  A    between atoms: _3  and  _6
REMARK    4  A    between atoms: _6  and  _7
REMARK    5  A    between atoms: _7  and  _8
REMARK    6  A    between atoms: _8  and  _9
REMARK    7  A    between atoms: _18  and  _20
REMARK    8  A    between atoms: _20  and  _21
REMARK    9  A    between atoms: _20  and  _23
REMARK   10  A    between atoms: _23  and  _24
REMARK   11  A    between atoms: _27  and  _29
REMARK   12  A    between atoms: _29  and  _30
REMARK   13  A    between atoms: _29  and  _32
REMARK   14  A    between atoms: _32  and  _33
REMARK   15  A    between atoms: _36  and  _38
REMARK   16  A    between atoms: _38  and  _39
REMARK   17  A    between atoms: _38  and  _41
REMARK   18  A    between atoms: _41  and  _42
REMARK   19  A    between atoms: _45  and  _47
REMARK   20  A    between atoms: _47  and  _48
REMARK   21  A    between atoms: _47  and  _50
REMARK   22  A    between atoms: _50  and  _51
REMARK   23  A    between atoms: _54  and  _56
REMARK   24  A    between atoms: _56  and  _57
REMARK   25  A    between atoms: _59  and  _61
REMARK   26  A    between atoms: _61  and  _62
REMARK   27  A    between atoms: _65  and  _67
REMARK   28  A    between atoms: _67  and  _68
REMARK   29  A    between atoms: _67  and  _70
REMARK   30  A    between atoms: _70  and  _71
REMARK   31  A    between atoms: _74  and  _76
REMARK   32  A    between atoms: _76  and  _77
REMARK   33  A    between atoms: _76  and  _79
REMARK   34  A    between atoms: _79  and  _80
REMARK   35  A    between atoms: _83  and  _85
REMARK   36  A    between atoms: _85  and  _86
REMARK   37  A    between atoms: _85  and  _88
REMARK   38  A    between atoms: _88  and  _89
REMARK   39  A    between atoms: _92  and  _94
REMARK   40  A    between atoms: _94  and  _95
REMARK   41  A    between atoms: _94  and  _97
REMARK   42  A    between atoms: _100  and  _102
REMARK   43  A    between atoms: _102  and  _103
REMARK   44  A    between atoms: _102  and  _105
REMARK   45  A    between atoms: _105  and  _106
REMARK   46  A    between atoms: _109  and  _111
REMARK   47  A    between atoms: _111  and  _112
REMARK   48  A    between atoms: _111  and  _114
REMARK   49  A    between atoms: _114  and  _115
REMARK   50  A    between atoms: _115  and  _116
REMARK   51  A    between atoms: _116  and  _117
REMARK   52  A    between atoms: _117  and  _118
REMARK   53  A    between atoms: _122  and  _124
REMARK   54  A    between atoms: _124  and  _125
REMARK   55  A    between atoms: _124  and  _127
REMARK   56  A    between atoms: _127  and  _128
REMARK   57  A    between atoms: _128  and  _129
REMARK   58  A    between atoms: _131  and  _133
REMARK   59  A    between atoms: _133  and  _134
REMARK   60  A    between atoms: _133  and  _136
REMARK   61  A    between atoms: _136  and  _137
REMARK   62  A    between atoms: _140  and  _142
REMARK   63  A    between atoms: _142  and  _143
REMARK   64  A    between atoms: _145  and  _147
REMARK   65  A    between atoms: _147  and  _148
REMARK   66  A    between atoms: _150  and  _152
REMARK   67  A    between atoms: _152  and  _153
REMARK   68  A    between atoms: _152  and  _155
REMARK   69  A    between atoms: _155  and  _156
REMARK   70  A    between atoms: _159  and  _161
REMARK   71  A    between atoms: _161  and  _162
REMARK   72  A    between atoms: _164  and  _166
REMARK   73  A    between atoms: _166  and  _167
REMARK   74  A    between atoms: _169  and  _171
REMARK   75  A    between atoms: _171  and  _172
REMARK   76  A    between atoms: _171  and  _174
REMARK   77  A    between atoms: _174  and  _175
REMARK   78  A    between atoms: _181  and  _183
REMARK   79  A    between atoms: _183  and  _184
REMARK   80  A    between atoms: _183  and  _186
REMARK   81  A    between atoms: _186  and  _187
REMARK   82  A    between atoms: _190  and  _192
REMARK   83  A    between atoms: _192  and  _193
REMARK   84  A    between atoms: _192  and  _195
REMARK   85  A    between atoms: _198  and  _200
REMARK   86  A    between atoms: _200  and  _201
REMARK   87  A    between atoms: _200  and  _203
REMARK   88  A    between atoms: _203  and  _204
REMARK   89  A    between atoms: _208  and  _209
REMARK   90  A    between atoms: _214  and  _216
REMARK   91  A    between atoms: _216  and  _217
REMARK   92  A    between atoms: _216  and  _219
REMARK   93  A    between atoms: _219  and  _220
REMARK   94  A    between atoms: _224  and  _225
REMARK   95  A    between atoms: _230  and  _232
REMARK   96  A    between atoms: _232  and  _233
REMARK   97  A    between atoms: _232  and  _235
REMARK   98  A    between atoms: _238  and  _240
REMARK   99  A    between atoms: _240  and  _241
REMARK  100  A    between atoms: _240  and  _243
REMARK  101  A    between atoms: _243  and  _244
REMARK  102  A    between atoms: _249  and  _251
REMARK  103  A    between atoms: _251  and  _252
REMARK  104  A    between atoms: _251  and  _254
REMARK  105  A    between atoms: _254  and  _255
REMARK  106  A    between atoms: _258  and  _260
REMARK  107  A    between atoms: _260  and  _261
REMARK  108  A    between atoms: _260  and  _263
REMARK  109  A    between atoms: _263  and  _264
REMARK  110  A    between atoms: _267  and  _269
REMARK  111  A    between atoms: _269  and  _270
REMARK  112  A    between atoms: _272  and  _274
REMARK  113  A    between atoms: _274  and  _275
REMARK  114  A    between atoms: _274  and  _277
REMARK  115  A    between atoms: _277  and  _278
REMARK  116  A    between atoms: _278  and  _279
REMARK  117  A    between atoms: _279  and  _280
REMARK  118  A    between atoms: _289  and  _291
REMARK  119  A    between atoms: _291  and  _292
REMARK  120  A    between atoms: _291  and  _294
REMARK  121  A    between atoms: _294  and  _295
REMARK  122  A    between atoms: _300  and  _302
REMARK  123  A    between atoms: _302  and  _303
REMARK  124  A    between atoms: _302  and  _305
REMARK  125  A    between atoms: _305  and  _306
REMARK  126  A    between atoms: _306  and  _307
REMARK  127  A    between atoms: _307  and  _308
REMARK  128  A    between atoms: _317  and  _319
REMARK  129  A    between atoms: _319  and  _320
REMARK  130  A    between atoms: _319  and  _322
REMARK  131  A    between atoms: _322  and  _323
REMARK  132  A    between atoms: _326  and  _328
REMARK  133  A    between atoms: _328  and  _329
REMARK  134  A    between atoms: _328  and  _331
REMARK  135  A    between atoms: _331  and  _332
REMARK  136  A    between atoms: _335  and  _337
REMARK  137  A    between atoms: _337  and  _338
REMARK  138  A    between atoms: _337  and  _340
REMARK  139  A    between atoms: _340  and  _341
REMARK  140  A    between atoms: _344  and  _346
REMARK  141  A    between atoms: _346  and  _347
REMARK  142  A    between atoms: _346  and  _349
REMARK  143  A    between atoms: _349  and  _350
REMARK  144  A    between atoms: _353  and  _355
REMARK  145  A    between atoms: _355  and  _356
REMARK  146  A    between atoms: _355  and  _358
REMARK  147  A    between atoms: _358  and  _359
REMARK  148  A    between atoms: _362  and  _364
REMARK  149  A    between atoms: _364  and  _365
REMARK  150  A    between atoms: _367  and  _369
REMARK  151  A    between atoms: _369  and  _370
REMARK  152  A    between atoms: _373  and  _375
REMARK  153  A    between atoms: _375  and  _376
REMARK  154  A    between atoms: _375  and  _378
REMARK  155  A    between atoms: _378  and  _379
REMARK  156  A    between atoms: _382  and  _384
REMARK  157  A    between atoms: _384  and  _385
REMARK  158  A    between atoms: _384  and  _387
REMARK  159  A    between atoms: _387  and  _388
REMARK  160  A    between atoms: _391  and  _393
REMARK  161  A    between atoms: _393  and  _394
REMARK  162  A    between atoms: _393  and  _396
REMARK  163  A    between atoms: _396  and  _397
REMARK  164  A    between atoms: _400  and  _402
REMARK  165  A    between atoms: _402  and  _403
REMARK  166  A    between atoms: _402  and  _405
REMARK  167  A    between atoms: _408  and  _410
REMARK  168  A    between atoms: _410  and  _411
REMARK  169  A    between atoms: _410  and  _413
REMARK  170  A    between atoms: _413  and  _414
REMARK  171  A    between atoms: _414  and  _415
REMARK  172  A    between atoms: _415  and  _416
REMARK  173  A    between atoms: _416  and  _417
REMARK  174  A    between atoms: _421  and  _423
REMARK  175  A    between atoms: _423  and  _424
REMARK  176  A    between atoms: _423  and  _426
REMARK  177  A    between atoms: _426  and  _427
REMARK  178  A    between atoms: _427  and  _428
REMARK  179  A    between atoms: _430  and  _432
REMARK  180  A    between atoms: _432  and  _433
REMARK  181  A    between atoms: _432  and  _435
REMARK  182  A    between atoms: _435  and  _436
REMARK  183  A    between atoms: _439  and  _441
REMARK  184  A    between atoms: _441  and  _442
REMARK  185  A    between atoms: _444  and  _446
REMARK  186  A    between atoms: _446  and  _447
REMARK  187  A    between atoms: _449  and  _451
REMARK  188  A    between atoms: _451  and  _452
REMARK  189  A    between atoms: _451  and  _454
REMARK  190  A    between atoms: _454  and  _455
REMARK  191  A    between atoms: _458  and  _460
REMARK  192  A    between atoms: _460  and  _461
REMARK  193  A    between atoms: _463  and  _465
REMARK  194  A    between atoms: _465  and  _466
REMARK  195  A    between atoms: _468  and  _470
REMARK  196  A    between atoms: _470  and  _471
REMARK  197  A    between atoms: _470  and  _473
REMARK  198  A    between atoms: _473  and  _474
REMARK  199  A    between atoms: _480  and  _482
REMARK  200  A    between atoms: _482  and  _483
REMARK  201  A    between atoms: _482  and  _485
REMARK  202  A    between atoms: _485  and  _486
REMARK  203  A    between atoms: _489  and  _491
REMARK  204  A    between atoms: _491  and  _492
REMARK  205  A    between atoms: _491  and  _494
REMARK  206  A    between atoms: _497  and  _499
REMARK  207  A    between atoms: _499  and  _500
REMARK  208  A    between atoms: _499  and  _502
REMARK  209  A    between atoms: _502  and  _503
REMARK  210  A    between atoms: _506  and  _508
REMARK  211  A    between atoms: _508  and  _509
REMARK  212  A    between atoms: _508  and  _511
REMARK  213  A    between atoms: _511  and  _512
REMARK  214  A    between atoms: _516  and  _517
REMARK  215  A    between atoms: _522  and  _524
REMARK  216  A    between atoms: _524  and  _525
REMARK  217  A    between atoms: _524  and  _527
REMARK  218  A    between atoms: _530  and  _532
REMARK  219  A    between atoms: _532  and  _533
REMARK  220  A    between atoms: _532  and  _535
REMARK  221  A    between atoms: _535  and  _536
REMARK  222  A    between atoms: _541  and  _543
REMARK  223  A    between atoms: _543  and  _544
REMARK  224  A    between atoms: _543  and  _546
REMARK  225  A    between atoms: _546  and  _547
REMARK  226  A    between atoms: _550  and  _552
REMARK  227  A    between atoms: _552  and  _553
REMARK  228  A    between atoms: _552  and  _555
REMARK  229  A    between atoms: _555  and  _556
REMARK  230  A    between atoms: _559  and  _561
REMARK  231  A    between atoms: _561  and  _562
REMARK  232  A    between atoms: _564  and  _566
REMARK  233  A    between atoms: _566  and  _567
REMARK  234  A    between atoms: _566  and  _569
REMARK  235  A    between atoms: _569  and  _570
REMARK  236  A    between atoms: _570  and  _571
REMARK  237  A    between atoms: _571  and  _572
REMARK  238  A    between atoms: _581  and  _583
REMARK  239  A    between atoms: _583  and  _584
REMARK  240  A    between atoms: _583  and  _586
REMARK  241  A    between atoms: _586  and  _587
REMARK                            x       y       z     vdW  Elec       q    Type
REMARK                         _______ _______ _______ _____ _____    ______ ____
ROOT
ATOM      1  C   ILE A   5      14.692 -20.909 -27.231  0.00  0.00    +0.241 C 
ATOM      2  N   ILE A   6      15.367 -19.769 -27.512  0.00  0.00    -0.297 N 
ATOM      3  H   ILE A   6      14.905 -18.847 -27.378  0.00  0.00    +0.150 HD
ATOM      4  O   ILE A   5      15.085 -22.025 -27.513  0.00  0.00    -0.273 OA
ENDROOT
BRANCH   2   5
ATOM      5  CA  ILE A   6      16.724 -19.830 -27.997  0.00  0.00    +0.149 C 
BRANCH   5   6
ATOM      6  C   ILE A   6      17.607 -19.610 -26.761  0.00  0.00    +0.241 C 
ATOM      7  O   ILE A   6      17.575 -18.501 -26.179  0.00  0.00    -0.273 OA
ATOM      8  N   GLY A   7      18.346 -20.662 -26.358  0.00  0.00    -0.295 N 
ATOM      9  H   GLY A   7      18.332 -21.543 -26.911  0.00  0.00    +0.150 HD
BRANCH   8  10
ATOM     10  CA  GLY A   7      19.168 -20.579 -25.151  0.00  0.00    +0.176 C 
BRANCH  10  11
ATOM     11  C   GLY A   7      20.621 -20.250 -25.425  0.00  0.00    +0.243 C 
ATOM     12  N   ARG A   8      21.427 -20.289 -24.357  0.00  0.00    -0.297 N 
ATOM     13  H   ARG A   8      21.093 -20.681 -23.454  0.00  0.00    +0.150 HD
ATOM     14  O   GLY A   7      21.031 -19.969 -26.588  0.00  0.00    -0.273 OA
BRANCH  12  15
ATOM     15  CA  ARG A   8      22.788 -19.768 -24.487  0.00  0.00    +0.149 C 
BRANCH  15  16
ATOM     16  C   ARG A   8      23.621 -20.533 -25.506  0.00  0.00    +0.241 C 
ATOM     17  N   ASN A   9      23.318 -21.826 -25.728  0.00  0.00    -0.298 N 
ATOM     18  H   ASN A   9      22.511 -22.279 -25.253  0.00  0.00    +0.150 HD
ATOM     19  O   ARG A   8      24.562 -19.972 -26.081  0.00  0.00    -0.273 OA
BRANCH  17  20
ATOM     20  CA  ASN A   9      24.165 -22.575 -26.664  0.00  0.00    +0.146 C 
BRANCH  20  21
ATOM     21  C   ASN A   9      24.141 -21.917 -28.030  0.00  0.00    +0.227 C 
ATOM     22  O   ASN A   9      25.173 -21.936 -28.760  0.00  0.00    -0.286 OA
ENDBRANCH  20  21
BRANCH  20  23
ATOM     23  CB  ASN A   9      23.758 -24.047 -26.797  0.00  0.00    +0.112 C 
BRANCH  23  24
ATOM     24  CG  ASN A   9      22.396 -24.235 -27.431  0.00  0.00    +0.222 C 
ATOM     25  OD1 ASN A   9      21.374 -23.624 -27.030  0.00  0.00    -0.275 OA
ATOM     26  ND2 ASN A   9      22.372 -25.117 -28.458  0.00  0.00    -0.329 N 
ATOM     27 HD21 ASN A   9      23.247 -25.597 -28.752  0.00  0.00    +0.145 HD
ATOM     28 HD22 ASN A   9      21.479 -25.314 -28.953  0.00  0.00    +0.145 HD
ENDBRANCH  23  24
ENDBRANCH  20  23
ENDBRANCH  17  20
ENDBRANCH  15  16
BRANCH  15  29
ATOM     29  CB  ARG A   8      23.507 -19.806 -23.136  0.00  0.00    +0.033 C 
BRANCH  29  30
ATOM     30  CG  ARG A   8      22.868 -18.766 -22.181  0.00  0.00    +0.045 C 
BRANCH  30  31
ATOM     31  CD  ARG A   8      23.665 -18.613 -20.836  0.00  0.00    +0.174 C 
BRANCH  31  32
ATOM     32  NE  ARG A   8      23.648 -19.875 -20.105  0.00  0.00    -0.265 N 
ATOM     33  HE  ARG A   8      22.816 -20.074 -19.513  0.00  0.00    +0.259 HD
ATOM     34  CZ  ARG A   8      24.624 -20.804 -20.135  0.00  0.00    +0.342 C 
ATOM     35  NH2 ARG A   8      24.479 -21.969 -19.479  0.00  0.00    -0.292 N 
ATOM     36 HH21 ARG A   8      23.608 -22.159 -18.943  0.00  0.00    +0.255 HD
ATOM     37 HH22 ARG A   8      25.238 -22.680 -19.508  0.00  0.00    +0.255 HD
ATOM     38  NH1 ARG A   8      25.753 -20.597 -20.839  0.00  0.00    -0.292 N 
ATOM     39 HH11 ARG A   8      26.498 -21.323 -20.853  0.00  0.00    +0.255 HD
ATOM     40 HH12 ARG A   8      25.880 -19.711 -21.369  0.00  0.00    +0.255 HD
ENDBRANCH  31  32
ENDBRANCH  30  31
ENDBRANCH  29  30
ENDBRANCH  15  29
ENDBRANCH  12  15
ENDBRANCH  10  11
ENDBRANCH   8  10
ENDBRANCH   5   6
BRANCH   5  41
ATOM     41  CB  ILE A   6      16.996 -18.702 -29.008  0.00  0.00    +0.027 C 
ATOM     42  CG2 ILE A   6      18.452 -18.758 -29.567  0.00  0.00    +0.002 C 
BRANCH  41  43
ATOM     43  CG1 ILE A   6      15.993 -18.798 -30.162  0.00  0.00    +0.002 C 
ATOM     44  CD1 ILE A   6      15.899 -20.199 -30.834  0.00  0.00    +0.000 C 
ENDBRANCH  41  43
ENDBRANCH   5  41
ENDBRANCH   2   5
BRANCH   1  45
ATOM     45  CA  ILE A   5      13.301 -20.772 -26.578  0.00  0.00    +0.149 C 
BRANCH  45  47
ATOM     46  C   ASN A   4      11.218 -20.878 -27.857  0.00  0.00    +0.241 C 
ATOM     47  N   ILE A   5      12.291 -21.494 -27.346  0.00  0.00    -0.297 N 
ATOM     48  H   ILE A   5      12.408 -22.516 -27.500  0.00  0.00    +0.150 HD
ATOM     49  O   ASN A   4      11.019 -19.652 -27.812  0.00  0.00    -0.273 OA
BRANCH  46  50
ATOM     50  CA  ASN A   4      10.182 -21.769 -28.504  0.00  0.00    +0.158 C 
BRANCH  50  53
ATOM     51  C   VAL A   3       8.637 -21.736 -26.613  0.00  0.00    +0.241 C 
ATOM     52  O   VAL A   3       9.405 -22.398 -25.921  0.00  0.00    -0.273 OA
ATOM     53  N   ASN A   4       8.880 -21.484 -27.910  0.00  0.00    -0.297 N 
ATOM     54  H   ASN A   4       8.127 -21.079 -28.501  0.00  0.00    +0.150 HD
BRANCH  51  55
ATOM     55  CA  VAL A   3       7.327 -21.223 -25.984  0.00  0.00    +0.149 C 
BRANCH  55  57
ATOM     56  C   PRO A   2       5.637 -22.510 -24.701  0.00  0.00    +0.241 C 
ATOM     57  N   VAL A   3       6.898 -22.265 -25.050  0.00  0.00    -0.297 N 
ATOM     58  H   VAL A   3       7.637 -22.861 -24.625  0.00  0.00    +0.150 HD
ATOM     59  O   PRO A   2       4.682 -21.992 -25.265  0.00  0.00    -0.273 OA
BRANCH  56  65
ATOM     60  C   THR A   1       6.794 -25.376 -24.260  0.00  0.00    +0.244 C 
ATOM     61  N   PRO A   2       6.563 -24.441 -23.324  0.00  0.00    -0.272 N 
ATOM     62  CD  PRO A   2       7.228 -24.229 -22.010  0.00  0.00    +0.094 C 
ATOM     63  CG  PRO A   2       6.512 -23.000 -21.456  0.00  0.00    +0.024 C 
ATOM     64  CB  PRO A   2       5.252 -22.796 -22.197  0.00  0.00    +0.031 C 
ATOM     65  CA  PRO A   2       5.429 -23.506 -23.550  0.00  0.00    +0.152 C 
ATOM     66  O   THR A   1       6.115 -25.473 -25.312  0.00  0.00    -0.273 OA
BRANCH  60  67
ATOM     67  CA  THR A   1       7.989 -26.335 -24.027  0.00  0.00    +0.172 C 
BRANCH  67  68
ATOM     68  CB  THR A   1       9.270 -25.727 -24.689  0.00  0.00    +0.135 C 
ATOM     69  CG2 THR A   1       9.122 -25.663 -26.220  0.00  0.00    +0.034 C 
BRANCH  68  70
ATOM     70  OG1 THR A   1       9.492 -24.405 -24.183  0.00  0.00    -0.383 OA
ATOM     71  HG1 THR A   1       8.710 -23.836 -24.395  0.00  0.00    +0.210 HD
ENDBRANCH  68  70
ENDBRANCH  67  68
BRANCH  67  72
ATOM     72  N   THR A   1       7.720 -27.647 -24.571  0.00  0.00    -0.236 NA
ATOM     73  H   THR A   1       8.152 -27.935 -25.472  0.00  0.00    +0.142 HD
ENDBRANCH  67  72
ENDBRANCH  60  67
ENDBRANCH  56  65
ENDBRANCH  55  57
BRANCH  55  74
ATOM     74  CB  VAL A   3       7.640 -19.920 -25.162  0.00  0.00    +0.027 C 
ATOM     75  CG2 VAL A   3       6.312 -19.246 -24.756  0.00  0.00    +0.002 C 
ATOM     76  CG1 VAL A   3       8.572 -18.958 -25.874  0.00  0.00    +0.002 C 
ENDBRANCH  55  74
ENDBRANCH  51  55
ENDBRANCH  50  53
BRANCH  50  77
ATOM     77  CB  ASN A   4      10.190 -21.528 -30.017  0.00  0.00    +0.114 C 
BRANCH  77  78
ATOM     78  CG  ASN A   4       9.233 -22.424 -30.726  0.00  0.00    +0.222 C 
ATOM     79  OD1 ASN A   4       9.024 -23.571 -30.327  0.00  0.00    -0.275 OA
ATOM     80  ND2 ASN A   4       8.637 -21.906 -31.806  0.00  0.00    -0.329 N 
ATOM     81 HD21 ASN A   4       8.849 -20.931 -32.100  0.00  0.00    +0.145 HD
ATOM     82 HD22 ASN A   4       7.961 -22.478 -32.352  0.00  0.00    +0.145 HD
ENDBRANCH  77  78
ENDBRANCH  50  77
ENDBRANCH  46  50
ENDBRANCH  45  47
BRANCH  45  83
ATOM     83  CB  ILE A   5      13.372 -21.416 -25.155  0.00  0.00    +0.027 C 
ATOM     84  CG2 ILE A   5      14.603 -21.020 -24.432  0.00  0.00    +0.002 C 
BRANCH  83  85
ATOM     85  CG1 ILE A   5      12.098 -21.052 -24.371  0.00  0.00    +0.002 C 
ATOM     86  CD1 ILE A   5      11.893 -21.917 -23.131  0.00  0.00    +0.000 C 
ENDBRANCH  83  85
ENDBRANCH  45  83
ENDBRANCH   1  45
TORSDOF 32
REMARK  Name = ../refined-set-2016/2pk6/2pk6_pocket.pdb
REMARK  241 active torsions:
REMARK  status: ('A' for Active; 'I' for Inactive)
REMARK    1  A    between atoms: _1  and  _3
REMARK    2  A    between atoms: _3  and  _4
REMARK    3  A    between atoms: _3  and  _6
REMARK    4  A    between atoms: _6  and  _7
REMARK    5  A    between atoms: _7  and  _8
REMARK    6  A    between atoms: _8  and  _9
REMARK    7  A    between atoms: _18  and  _20
REMARK    8  A    between atoms: _20  and  _21
REMARK    9  A    between atoms: _20  and  _23
REMARK   10  A    between atoms: _23  and  _24
REMARK   11  A    between atoms: _27  and  _29
REMARK   12  A    between atoms: _29  and  _30
REMARK   13  A    between atoms: _29  and  _32
REMARK   14  A    between atoms: _32  and  _33
REMARK   15  A    between atoms: _36  and  _38
REMARK   16  A    between atoms: _38  and  _39
REMARK   17  A    between atoms: _38  and  _41
REMARK   18  A    between atoms: _41  and  _42
REMARK   19  A    between atoms: _45  and  _47
REMARK   20  A    between atoms: _47  and  _48
REMARK   21  A    between atoms: _47  and  _50
REMARK   22  A    between atoms: _50  and  _51
REMARK   23  A    between atoms: _54  and  _56
REMARK   24  A    between atoms: _56  and  _57
REMARK   25  A    between atoms: _59  and  _61
REMARK   26  A    between atoms: _61  and  _62
REMARK   27  A    between atoms: _65  and  _67
REMARK   28  A    between atoms: _67  and  _68
REMARK   29  A    between atoms: _67  and  _70
REMARK   30  A    between atoms: _70  and  _71
REMARK   31  A    between atoms: _74  and  _76
REMARK   32  A    between atoms: _76  and  _77
REMARK   33  A    between atoms: _76  and  _79
REMARK   34  A    between atoms: _79  and  _80
REMARK   35  A    between atoms: _83  and  _85
REMARK   36  A    between atoms: _85  and  _86
REMARK   37  A    between atoms: _85  and  _88
REMARK   38  A    between atoms: _88  and  _89
REMARK   39  A    between atoms: _92  and  _94
REMARK   40  A    between atoms: _94  and  _95
REMARK   41  A    between atoms: _94  and  _97
REMARK   42  A    between atoms: _100  and  _102
REMARK   43  A    between atoms: _102  and  _103
REMARK   44  A    between atoms: _102  and  _105
REMARK   45  A    between atoms: _105  and  _106
REMARK   46  A    between atoms: _109  and  _111
REMARK   47  A    between atoms: _111  and  _112
REMARK   48  A    between atoms: _111  and  _114
REMARK   49  A    between atoms: _114  and  _115
REMARK   50  A    between atoms: _115  and  _116
REMARK   51  A    between atoms: _116  and  _117
REMARK   52  A    between atoms: _117  and  _118
REMARK   53  A    between atoms: _122  and  _124
REMARK   54  A    between atoms: _124  and  _125
REMARK   55  A    between atoms: _124  and  _127
REMARK   56  A    between atoms: _127  and  _128
REMARK   57  A    between atoms: _128  and  _129
REMARK   58  A    between atoms: _131  and  _133
REMARK   59  A    between atoms: _133  and  _134
REMARK   60  A    between atoms: _133  and  _136
REMARK   61  A    between atoms: _136  and  _137
REMARK   62  A    between atoms: _140  and  _142
REMARK   63  A    between atoms: _142  and  _143
REMARK   64  A    between atoms: _145  and  _147
REMARK   65  A    between atoms: _147  and  _148
REMARK   66  A    between atoms: _150  and  _152
REMARK   67  A    between atoms: _152  and  _153
REMARK   68  A    between atoms: _152  and  _155
REMARK   69  A    between atoms: _155  and  _156
REMARK   70  A    between atoms: _159  and  _161
REMARK   71  A    between atoms: _161  and  _162
REMARK   72  A    between atoms: _164  and  _166
REMARK   73  A    between atoms: _166  and  _167
REMARK   74  A    between atoms: _169  and  _171
REMARK   75  A    between atoms: _171  and  _172
REMARK   76  A    between atoms: _171  and  _174
REMARK   77  A    between atoms: _174  and  _175
REMARK   78  A    between atoms: _181  and  _183
REMARK   79  A    between atoms: _183  and  _184
REMARK   80  A    between atoms: _183  and  _186
REMARK   81  A    between atoms: _186  and  _187
REMARK   82  A    between atoms: _190  and  _192
REMARK   83  A    between atoms: _192  and  _193
REMARK   84  A    between atoms: _192  and  _195
REMARK   85  A    between atoms: _198  and  _200
REMARK   86  A    between atoms: _200  and  _201
REMARK   87  A    between atoms: _200  and  _203
REMARK   88  A    between atoms: _203  and  _204
REMARK   89  A    between atoms: _208  and  _209
REMARK   90  A    between atoms: _214  and  _216
REMARK   91  A    between atoms: _216  and  _217
REMARK   92  A    between atoms: _216  and  _219
REMARK   93  A    between atoms: _219  and  _220
REMARK   94  A    between atoms: _224  and  _225
REMARK   95  A    between atoms: _230  and  _232
REMARK   96  A    between atoms: _232  and  _233
REMARK   97  A    between atoms: _232  and  _235
REMARK   98  A    between atoms: _238  and  _240
REMARK   99  A    between atoms: _240  and  _241
REMARK  100  A    between atoms: _240  and  _243
REMARK  101  A    between atoms: _243  and  _244
REMARK  102  A    between atoms: _249  and  _251
REMARK  103  A    between atoms: _251  and  _252
REMARK  104  A    between atoms: _251  and  _254
REMARK  105  A    between atoms: _254  and  _255
REMARK  106  A    between atoms: _258  and  _260
REMARK  107  A    between atoms: _260  and  _261
REMARK  108  A    between atoms: _260  and  _263
REMARK  109  A    between atoms: _263  and  _264
REMARK  110  A    between atoms: _267  and  _269
REMARK  111  A    between atoms: _269  and  _270
REMARK  112  A    between atoms: _272  and  _274
REMARK  113  A    between atoms: _274  and  _275
REMARK  114  A    between atoms: _274  and  _277
REMARK  115  A    between atoms: _277  and  _278
REMARK  116  A    between atoms: _278  and  _279
REMARK  117  A    between atoms: _279  and  _280
REMARK  118  A    between atoms: _289  and  _291
REMARK  119  A    between atoms: _291  and  _292
REMARK  120  A    between atoms: _291  and  _294
REMARK  121  A    between atoms: _294  and  _295
REMARK  122  A    between atoms: _300  and  _302
REMARK  123  A    between atoms: _302  and  _303
REMARK  124  A    between atoms: _302  and  _305
REMARK  125  A    between atoms: _305  and  _306
REMARK  126  A    between atoms: _306  and  _307
REMARK  127  A    between atoms: _307  and  _308
REMARK  128  A    between atoms: _317  and  _319
REMARK  129  A    between atoms: _319  and  _320
REMARK  130  A    between atoms: _319  and  _322
REMARK  131  A    between atoms: _322  and  _323
REMARK  132  A    between atoms: _326  and  _328
REMARK  133  A    between atoms: _328  and  _329
REMARK  134  A    between atoms: _328  and  _331
REMARK  135  A    between atoms: _331  and  _332
REMARK  136  A    between atoms: _335  and  _337
REMARK  137  A    between atoms: _337  and  _338
REMARK  138  A    between atoms: _337  and  _340
REMARK  139  A    between atoms: _340  and  _341
REMARK  140  A    between atoms: _344  and  _346
REMARK  141  A    between atoms: _346  and  _347
REMARK  142  A    between atoms: _346  and  _349
REMARK  143  A    between atoms: _349  and  _350
REMARK  144  A    between atoms: _353  and  _355
REMARK  145  A    between atoms: _355  and  _356
REMARK  146  A    between atoms: _355  and  _358
REMARK  147  A    between atoms: _358  and  _359
REMARK  148  A    between atoms: _362  and  _364
REMARK  149  A    between atoms: _364  and  _365
REMARK  150  A    between atoms: _367  and  _369
REMARK  151  A    between atoms: _369  and  _370
REMARK  152  A    between atoms: _373  and  _375
REMARK  153  A    between atoms: _375  and  _376
REMARK  154  A    between atoms: _375  and  _378
REMARK  155  A    between atoms: _378  and  _379
REMARK  156  A    between atoms: _382  and  _384
REMARK  157  A    between atoms: _384  and  _385
REMARK  158  A    between atoms: _384  and  _387
REMARK  159  A    between atoms: _387  and  _388
REMARK  160  A    between atoms: _391  and  _393
REMARK  161  A    between atoms: _393  and  _394
REMARK  162  A    between atoms: _393  and  _396
REMARK  163  A    between atoms: _396  and  _397
REMARK  164  A    between atoms: _400  and  _402
REMARK  165  A    between atoms: _402  and  _403
REMARK  166  A    between atoms: _402  and  _405
REMARK  167  A    between atoms: _408  and  _410
REMARK  168  A    between atoms: _410  and  _411
REMARK  169  A    between atoms: _410  and  _413
REMARK  170  A    between atoms: _413  and  _414
REMARK  171  A    between atoms: _414  and  _415
REMARK  172  A    between atoms: _415  and  _416
REMARK  173  A    between atoms: _416  and  _417
REMARK  174  A    between atoms: _421  and  _423
REMARK  175  A    between atoms: _423  and  _424
REMARK  176  A    between atoms: _423  and  _426
REMARK  177  A    between atoms: _426  and  _427
REMARK  178  A    between atoms: _427  and  _428
REMARK  179  A    between atoms: _430  and  _432
REMARK  180  A    between atoms: _432  and  _433
REMARK  181  A    between atoms: _432  and  _435
REMARK  182  A    between atoms: _435  and  _436
REMARK  183  A    between atoms: _439  and  _441
REMARK  184  A    between atoms: _441  and  _442
REMARK  185  A    between atoms: _444  and  _446
REMARK  186  A    between atoms: _446  and  _447
REMARK  187  A    between atoms: _449  and  _451
REMARK  188  A    between atoms: _451  and  _452
REMARK  189  A    between atoms: _451  and  _454
REMARK  190  A    between atoms: _454  and  _455
REMARK  191  A    between atoms: _458  and  _460
REMARK  192  A    between atoms: _460  and  _461
REMARK  193  A    between atoms: _463  and  _465
REMARK  194  A    between atoms: _465  and  _466
REMARK  195  A    between atoms: _468  and  _470
REMARK  196  A    between atoms: _470  and  _471
REMARK  197  A    between atoms: _470  and  _473
REMARK  198  A    between atoms: _473  and  _474
REMARK  199  A    between atoms: _480  and  _482
REMARK  200  A    between atoms: _482  and  _483
REMARK  201  A    between atoms: _482  and  _485
REMARK  202  A    between atoms: _485  and  _486
REMARK  203  A    between atoms: _489  and  _491
REMARK  204  A    between atoms: _491  and  _492
REMARK  205  A    between atoms: _491  and  _494
REMARK  206  A    between atoms: _497  and  _499
REMARK  207  A    between atoms: _499  and  _500
REMARK  208  A    between atoms: _499  and  _502
REMARK  209  A    between atoms: _502  and  _503
REMARK  210  A    between atoms: _506  and  _508
REMARK  211  A    between atoms: _508  and  _509
REMARK  212  A    between atoms: _508  and  _511
REMARK  213  A    between atoms: _511  and  _512
REMARK  214  A    between atoms: _516  and  _517
REMARK  215  A    between atoms: _522  and  _524
REMARK  216  A    between atoms: _524  and  _525
REMARK  217  A    between atoms: _524  and  _527
REMARK  218  A    between atoms: _530  and  _532
REMARK  219  A    between atoms: _532  and  _533
REMARK  220  A    between atoms: _532  and  _535
REMARK  221  A    between atoms: _535  and  _536
REMARK  222  A    between atoms: _541  and  _543
REMARK  223  A    between atoms: _543  and  _544
REMARK  224  A    between atoms: _543  and  _546
REMARK  225  A    between atoms: _546  and  _547
REMARK  226  A    between atoms: _550  and  _552
REMARK  227  A    between atoms: _552  and  _553
REMARK  228  A    between atoms: _552  and  _555
REMARK  229  A    between atoms: _555  and  _556
REMARK  230  A    between atoms: _559  and  _561
REMARK  231  A    between atoms: _561  and  _562
REMARK  232  A    between atoms: _564  and  _566
REMARK  233  A    between atoms: _566  and  _567
REMARK  234  A    between atoms: _566  and  _569
REMARK  235  A    between atoms: _569  and  _570
REMARK  236  A    between atoms: _570  and  _571
REMARK  237  A    between atoms: _571  and  _572
REMARK  238  A    between atoms: _581  and  _583
REMARK  239  A    between atoms: _583  and  _584
REMARK  240  A    between atoms: _583  and  _586
REMARK  241  A    between atoms: _586  and  _587
REMARK                            x       y       z     vdW  Elec       q    Type
REMARK                         _______ _______ _______ _____ _____    ______ ____
ROOT
ATOM      1  O   HOH     1      10.663 -12.438 -21.742  0.00  0.00    +0.000 OA
ENDROOT
TORSDOF 0
REMARK  Name = ../refined-set-2016/2pk6/2pk6_pocket.pdb
REMARK  241 active torsions:
REMARK  status: ('A' for Active; 'I' for Inactive)
REMARK    1  A    between atoms: _1  and  _3
REMARK    2  A    between atoms: _3  and  _4
REMARK    3  A    between atoms: _3  and  _6
REMARK    4  A    between atoms: _6  and  _7
REMARK    5  A    between atoms: _7  and  _8
REMARK    6  A    between atoms: _8  and  _9
REMARK    7  A    between atoms: _18  and  _20
REMARK    8  A    between atoms: _20  and  _21
REMARK    9  A    between atoms: _20  and  _23
REMARK   10  A    between atoms: _23  and  _24
REMARK   11  A    between atoms: _27  and  _29
REMARK   12  A    between atoms: _29  and  _30
REMARK   13  A    between atoms: _29  and  _32
REMARK   14  A    between atoms: _32  and  _33
REMARK   15  A    between atoms: _36  and  _38
REMARK   16  A    between atoms: _38  and  _39
REMARK   17  A    between atoms: _38  and  _41
REMARK   18  A    between atoms: _41  and  _42
REMARK   19  A    between atoms: _45  and  _47
REMARK   20  A    between atoms: _47  and  _48
REMARK   21  A    between atoms: _47  and  _50
REMARK   22  A    between atoms: _50  and  _51
REMARK   23  A    between atoms: _54  and  _56
REMARK   24  A    between atoms: _56  and  _57
REMARK   25  A    between atoms: _59  and  _61
REMARK   26  A    between atoms: _61  and  _62
REMARK   27  A    between atoms: _65  and  _67
REMARK   28  A    between atoms: _67  and  _68
REMARK   29  A    between atoms: _67  and  _70
REMARK   30  A    between atoms: _70  and  _71
REMARK   31  A    between atoms: _74  and  _76
REMARK   32  A    between atoms: _76  and  _77
REMARK   33  A    between atoms: _76  and  _79
REMARK   34  A    between atoms: _79  and  _80
REMARK   35  A    between atoms: _83  and  _85
REMARK   36  A    between atoms: _85  and  _86
REMARK   37  A    between atoms: _85  and  _88
REMARK   38  A    between atoms: _88  and  _89
REMARK   39  A    between atoms: _92  and  _94
REMARK   40  A    between atoms: _94  and  _95
REMARK   41  A    between atoms: _94  and  _97
REMARK   42  A    between atoms: _100  and  _102
REMARK   43  A    between atoms: _102  and  _103
REMARK   44  A    between atoms: _102  and  _105
REMARK   45  A    between atoms: _105  and  _106
REMARK   46  A    between atoms: _109  and  _111
REMARK   47  A    between atoms: _111  and  _112
REMARK   48  A    between atoms: _111  and  _114
REMARK   49  A    between atoms: _114  and  _115
REMARK   50  A    between atoms: _115  and  _116
REMARK   51  A    between atoms: _116  and  _117
REMARK   52  A    between atoms: _117  and  _118
REMARK   53  A    between atoms: _122  and  _124
REMARK   54  A    between atoms: _124  and  _125
REMARK   55  A    between atoms: _124  and  _127
REMARK   56  A    between atoms: _127  and  _128
REMARK   57  A    between atoms: _128  and  _129
REMARK   58  A    between atoms: _131  and  _133
REMARK   59  A    between atoms: _133  and  _134
REMARK   60  A    between atoms: _133  and  _136
REMARK   61  A    between atoms: _136  and  _137
REMARK   62  A    between atoms: _140  and  _142
REMARK   63  A    between atoms: _142  and  _143
REMARK   64  A    between atoms: _145  and  _147
REMARK   65  A    between atoms: _147  and  _148
REMARK   66  A    between atoms: _150  and  _152
REMARK   67  A    between atoms: _152  and  _153
REMARK   68  A    between atoms: _152  and  _155
REMARK   69  A    between atoms: _155  and  _156
REMARK   70  A    between atoms: _159  and  _161
REMARK   71  A    between atoms: _161  and  _162
REMARK   72  A    between atoms: _164  and  _166
REMARK   73  A    between atoms: _166  and  _167
REMARK   74  A    between atoms: _169  and  _171
REMARK   75  A    between atoms: _171  and  _172
REMARK   76  A    between atoms: _171  and  _174
REMARK   77  A    between atoms: _174  and  _175
REMARK   78  A    between atoms: _181  and  _183
REMARK   79  A    between atoms: _183  and  _184
REMARK   80  A    between atoms: _183  and  _186
REMARK   81  A    between atoms: _186  and  _187
REMARK   82  A    between atoms: _190  and  _192
REMARK   83  A    between atoms: _192  and  _193
REMARK   84  A    between atoms: _192  and  _195
REMARK   85  A    between atoms: _198  and  _200
REMARK   86  A    between atoms: _200  and  _201
REMARK   87  A    between atoms: _200  and  _203
REMARK   88  A    between atoms: _203  and  _204
REMARK   89  A    between atoms: _208  and  _209
REMARK   90  A    between atoms: _214  and  _216
REMARK   91  A    between atoms: _216  and  _217
REMARK   92  A    between atoms: _216  and  _219
REMARK   93  A    between atoms: _219  and  _220
REMARK   94  A    between atoms: _224  and  _225
REMARK   95  A    between atoms: _230  and  _232
REMARK   96  A    between atoms: _232  and  _233
REMARK   97  A    between atoms: _232  and  _235
REMARK   98  A    between atoms: _238  and  _240
REMARK   99  A    between atoms: _240  and  _241
REMARK  100  A    between atoms: _240  and  _243
REMARK  101  A    between atoms: _243  and  _244
REMARK  102  A    between atoms: _249  and  _251
REMARK  103  A    between atoms: _251  and  _252
REMARK  104  A    between atoms: _251  and  _254
REMARK  105  A    between atoms: _254  and  _255
REMARK  106  A    between atoms: _258  and  _260
REMARK  107  A    between atoms: _260  and  _261
REMARK  108  A    between atoms: _260  and  _263
REMARK  109  A    between atoms: _263  and  _264
REMARK  110  A    between atoms: _267  and  _269
REMARK  111  A    between atoms: _269  and  _270
REMARK  112  A    between atoms: _272  and  _274
REMARK  113  A    between atoms: _274  and  _275
REMARK  114  A    between atoms: _274  and  _277
REMARK  115  A    between atoms: _277  and  _278
REMARK  116  A    between atoms: _278  and  _279
REMARK  117  A    between atoms: _279  and  _280
REMARK  118  A    between atoms: _289  and  _291
REMARK  119  A    between atoms: _291  and  _292
REMARK  120  A    between atoms: _291  and  _294
REMARK  121  A    between atoms: _294  and  _295
REMARK  122  A    between atoms: _300  and  _302
REMARK  123  A    between atoms: _302  and  _303
REMARK  124  A    between atoms: _302  and  _305
REMARK  125  A    between atoms: _305  and  _306
REMARK  126  A    between atoms: _306  and  _307
REMARK  127  A    between atoms: _307  and  _308
REMARK  128  A    between atoms: _317  and  _319
REMARK  129  A    between atoms: _319  and  _320
REMARK  130  A    between atoms: _319  and  _322
REMARK  131  A    between atoms: _322  and  _323
REMARK  132  A    between atoms: _326  and  _328
REMARK  133  A    between atoms: _328  and  _329
REMARK  134  A    between atoms: _328  and  _331
REMARK  135  A    between atoms: _331  and  _332
REMARK  136  A    between atoms: _335  and  _337
REMARK  137  A    between atoms: _337  and  _338
REMARK  138  A    between atoms: _337  and  _340
REMARK  139  A    between atoms: _340  and  _341
REMARK  140  A    between atoms: _344  and  _346
REMARK  141  A    between atoms: _346  and  _347
REMARK  142  A    between atoms: _346  and  _349
REMARK  143  A    between atoms: _349  and  _350
REMARK  144  A    between atoms: _353  and  _355
REMARK  145  A    between atoms: _355  and  _356
REMARK  146  A    between atoms: _355  and  _358
REMARK  147  A    between atoms: _358  and  _359
REMARK  148  A    between atoms: _362  and  _364
REMARK  149  A    between atoms: _364  and  _365
REMARK  150  A    between atoms: _367  and  _369
REMARK  151  A    between atoms: _369  and  _370
REMARK  152  A    between atoms: _373  and  _375
REMARK  153  A    between atoms: _375  and  _376
REMARK  154  A    between atoms: _375  and  _378
REMARK  155  A    between atoms: _378  and  _379
REMARK  156  A    between atoms: _382  and  _384
REMARK  157  A    between atoms: _384  and  _385
REMARK  158  A    between atoms: _384  and  _387
REMARK  159  A    between atoms: _387  and  _388
REMARK  160  A    between atoms: _391  and  _393
REMARK  161  A    between atoms: _393  and  _394
REMARK  162  A    between atoms: _393  and  _396
REMARK  163  A    between atoms: _396  and  _397
REMARK  164  A    between atoms: _400  and  _402
REMARK  165  A    between atoms: _402  and  _403
REMARK  166  A    between atoms: _402  and  _405
REMARK  167  A    between atoms: _408  and  _410
REMARK  168  A    between atoms: _410  and  _411
REMARK  169  A    between atoms: _410  and  _413
REMARK  170  A    between atoms: _413  and  _414
REMARK  171  A    between atoms: _414  and  _415
REMARK  172  A    between atoms: _415  and  _416
REMARK  173  A    between atoms: _416  and  _417
REMARK  174  A    between atoms: _421  and  _423
REMARK  175  A    between atoms: _423  and  _424
REMARK  176  A    between atoms: _423  and  _426
REMARK  177  A    between atoms: _426  and  _427
REMARK  178  A    between atoms: _427  and  _428
REMARK  179  A    between atoms: _430  and  _432
REMARK  180  A    between atoms: _432  and  _433
REMARK  181  A    between atoms: _432  and  _435
REMARK  182  A    between atoms: _435  and  _436
REMARK  183  A    between atoms: _439  and  _441
REMARK  184  A    between atoms: _441  and  _442
REMARK  185  A    between atoms: _444  and  _446
REMARK  186  A    between atoms: _446  and  _447
REMARK  187  A    between atoms: _449  and  _451
REMARK  188  A    between atoms: _451  and  _452
REMARK  189  A    between atoms: _451  and  _454
REMARK  190  A    between atoms: _454  and  _455
REMARK  191  A    between atoms: _458  and  _460
REMARK  192  A    between atoms: _460  and  _461
REMARK  193  A    between atoms: _463  and  _465
REMARK  194  A    between atoms: _465  and  _466
REMARK  195  A    between atoms: _468  and  _470
REMARK  196  A    between atoms: _470  and  _471
REMARK  197  A    between atoms: _470  and  _473
REMARK  198  A    between atoms: _473  and  _474
REMARK  199  A    between atoms: _480  and  _482
REMARK  200  A    between atoms: _482  and  _483
REMARK  201  A    between atoms: _482  and  _485
REMARK  202  A    between atoms: _485  and  _486
REMARK  203  A    between atoms: _489  and  _491
REMARK  204  A    between atoms: _491  and  _492
REMARK  205  A    between atoms: _491  and  _494
REMARK  206  A    between atoms: _497  and  _499
REMARK  207  A    between atoms: _499  and  _500
REMARK  208  A    between atoms: _499  and  _502
REMARK  209  A    between atoms: _502  and  _503
REMARK  210  A    between atoms: _506  and  _508
REMARK  211  A    between atoms: _508  and  _509
REMARK  212  A    between atoms: _508  and  _511
REMARK  213  A    between atoms: _511  and  _512
REMARK  214  A    between atoms: _516  and  _517
REMARK  215  A    between atoms: _522  and  _524
REMARK  216  A    between atoms: _524  and  _525
REMARK  217  A    between atoms: _524  and  _527
REMARK  218  A    between atoms: _530  and  _532
REMARK  219  A    between atoms: _532  and  _533
REMARK  220  A    between atoms: _532  and  _535
REMARK  221  A    between atoms: _535  and  _536
REMARK  222  A    between atoms: _541  and  _543
REMARK  223  A    between atoms: _543  and  _544
REMARK  224  A    between atoms: _543  and  _546
REMARK  225  A    between atoms: _546  and  _547
REMARK  226  A    between atoms: _550  and  _552
REMARK  227  A    between atoms: _552  and  _553
REMARK  228  A    between atoms: _552  and  _555
REMARK  229  A    between atoms: _555  and  _556
REMARK  230  A    between atoms: _559  and  _561
REMARK  231  A    between atoms: _561  and  _562
REMARK  232  A    between atoms: _564  and  _566
REMARK  233  A    between atoms: _566  and  _567
REMARK  234  A    between atoms: _566  and  _569
REMARK  235  A    between atoms: _569  and  _570
REMARK  236  A    between atoms: _570  and  _571
REMARK  237  A    between atoms: _571  and  _572
REMARK  238  A    between atoms: _581  and  _583
REMARK  239  A    between atoms: _583  and  _584
REMARK  240  A    between atoms: _583  and  _586
REMARK  241  A    between atoms: _586  and  _587
REMARK                            x       y       z     vdW  Elec       q    Type
REMARK                         _______ _______ _______ _____ _____    ______ ____
ROOT
ATOM      1  O   HOH     1       8.839 -14.364 -21.227  0.00  0.00    +0.000 OA
ENDROOT
TORSDOF 0
REMARK  Name = ../refined-set-2016/2pk6/2pk6_pocket.pdb
REMARK  241 active torsions:
REMARK  status: ('A' for Active; 'I' for Inactive)
REMARK    1  A    between atoms: _1  and  _3
REMARK    2  A    between atoms: _3  and  _4
REMARK    3  A    between atoms: _3  and  _6
REMARK    4  A    between atoms: _6  and  _7
REMARK    5  A    between atoms: _7  and  _8
REMARK    6  A    between atoms: _8  and  _9
REMARK    7  A    between atoms: _18  and  _20
REMARK    8  A    between atoms: _20  and  _21
REMARK    9  A    between atoms: _20  and  _23
REMARK   10  A    between atoms: _23  and  _24
REMARK   11  A    between atoms: _27  and  _29
REMARK   12  A    between atoms: _29  and  _30
REMARK   13  A    between atoms: _29  and  _32
REMARK   14  A    between atoms: _32  and  _33
REMARK   15  A    between atoms: _36  and  _38
REMARK   16  A    between atoms: _38  and  _39
REMARK   17  A    between atoms: _38  and  _41
REMARK   18  A    between atoms: _41  and  _42
REMARK   19  A    between atoms: _45  and  _47
REMARK   20  A    between atoms: _47  and  _48
REMARK   21  A    between atoms: _47  and  _50
REMARK   22  A    between atoms: _50  and  _51
REMARK   23  A    between atoms: _54  and  _56
REMARK   24  A    between atoms: _56  and  _57
REMARK   25  A    between atoms: _59  and  _61
REMARK   26  A    between atoms: _61  and  _62
REMARK   27  A    between atoms: _65  and  _67
REMARK   28  A    between atoms: _67  and  _68
REMARK   29  A    between atoms: _67  and  _70
REMARK   30  A    between atoms: _70  and  _71
REMARK   31  A    between atoms: _74  and  _76
REMARK   32  A    between atoms: _76  and  _77
REMARK   33  A    between atoms: _76  and  _79
REMARK   34  A    between atoms: _79  and  _80
REMARK   35  A    between atoms: _83  and  _85
REMARK   36  A    between atoms: _85  and  _86
REMARK   37  A    between atoms: _85  and  _88
REMARK   38  A    between atoms: _88  and  _89
REMARK   39  A    between atoms: _92  and  _94
REMARK   40  A    between atoms: _94  and  _95
REMARK   41  A    between atoms: _94  and  _97
REMARK   42  A    between atoms: _100  and  _102
REMARK   43  A    between atoms: _102  and  _103
REMARK   44  A    between atoms: _102  and  _105
REMARK   45  A    between atoms: _105  and  _106
REMARK   46  A    between atoms: _109  and  _111
REMARK   47  A    between atoms: _111  and  _112
REMARK   48  A    between atoms: _111  and  _114
REMARK   49  A    between atoms: _114  and  _115
REMARK   50  A    between atoms: _115  and  _116
REMARK   51  A    between atoms: _116  and  _117
REMARK   52  A    between atoms: _117  and  _118
REMARK   53  A    between atoms: _122  and  _124
REMARK   54  A    between atoms: _124  and  _125
REMARK   55  A    between atoms: _124  and  _127
REMARK   56  A    between atoms: _127  and  _128
REMARK   57  A    between atoms: _128  and  _129
REMARK   58  A    between atoms: _131  and  _133
REMARK   59  A    between atoms: _133  and  _134
REMARK   60  A    between atoms: _133  and  _136
REMARK   61  A    between atoms: _136  and  _137
REMARK   62  A    between atoms: _140  and  _142
REMARK   63  A    between atoms: _142  and  _143
REMARK   64  A    between atoms: _145  and  _147
REMARK   65  A    between atoms: _147  and  _148
REMARK   66  A    between atoms: _150  and  _152
REMARK   67  A    between atoms: _152  and  _153
REMARK   68  A    between atoms: _152  and  _155
REMARK   69  A    between atoms: _155  and  _156
REMARK   70  A    between atoms: _159  and  _161
REMARK   71  A    between atoms: _161  and  _162
REMARK   72  A    between atoms: _164  and  _166
REMARK   73  A    between atoms: _166  and  _167
REMARK   74  A    between atoms: _169  and  _171
REMARK   75  A    between atoms: _171  and  _172
REMARK   76  A    between atoms: _171  and  _174
REMARK   77  A    between atoms: _174  and  _175
REMARK   78  A    between atoms: _181  and  _183
REMARK   79  A    between atoms: _183  and  _184
REMARK   80  A    between atoms: _183  and  _186
REMARK   81  A    between atoms: _186  and  _187
REMARK   82  A    between atoms: _190  and  _192
REMARK   83  A    between atoms: _192  and  _193
REMARK   84  A    between atoms: _192  and  _195
REMARK   85  A    between atoms: _198  and  _200
REMARK   86  A    between atoms: _200  and  _201
REMARK   87  A    between atoms: _200  and  _203
REMARK   88  A    between atoms: _203  and  _204
REMARK   89  A    between atoms: _208  and  _209
REMARK   90  A    between atoms: _214  and  _216
REMARK   91  A    between atoms: _216  and  _217
REMARK   92  A    between atoms: _216  and  _219
REMARK   93  A    between atoms: _219  and  _220
REMARK   94  A    between atoms: _224  and  _225
REMARK   95  A    between atoms: _230  and  _232
REMARK   96  A    between atoms: _232  and  _233
REMARK   97  A    between atoms: _232  and  _235
REMARK   98  A    between atoms: _238  and  _240
REMARK   99  A    between atoms: _240  and  _241
REMARK  100  A    between atoms: _240  and  _243
REMARK  101  A    between atoms: _243  and  _244
REMARK  102  A    between atoms: _249  and  _251
REMARK  103  A    between atoms: _251  and  _252
REMARK  104  A    between atoms: _251  and  _254
REMARK  105  A    between atoms: _254  and  _255
REMARK  106  A    between atoms: _258  and  _260
REMARK  107  A    between atoms: _260  and  _261
REMARK  108  A    between atoms: _260  and  _263
REMARK  109  A    between atoms: _263  and  _264
REMARK  110  A    between atoms: _267  and  _269
REMARK  111  A    between atoms: _269  and  _270
REMARK  112  A    between atoms: _272  and  _274
REMARK  113  A    between atoms: _274  and  _275
REMARK  114  A    between atoms: _274  and  _277
REMARK  115  A    between atoms: _277  and  _278
REMARK  116  A    between atoms: _278  and  _279
REMARK  117  A    between atoms: _279  and  _280
REMARK  118  A    between atoms: _289  and  _291
REMARK  119  A    between atoms: _291  and  _292
REMARK  120  A    between atoms: _291  and  _294
REMARK  121  A    between atoms: _294  and  _295
REMARK  122  A    between atoms: _300  and  _302
REMARK  123  A    between atoms: _302  and  _303
REMARK  124  A    between atoms: _302  and  _305
REMARK  125  A    between atoms: _305  and  _306
REMARK  126  A    between atoms: _306  and  _307
REMARK  127  A    between atoms: _307  and  _308
REMARK  128  A    between atoms: _317  and  _319
REMARK  129  A    between atoms: _319  and  _320
REMARK  130  A    between atoms: _319  and  _322
REMARK  131  A    between atoms: _322  and  _323
REMARK  132  A    between atoms: _326  and  _328
REMARK  133  A    between atoms: _328  and  _329
REMARK  134  A    between atoms: _328  and  _331
REMARK  135  A    between atoms: _331  and  _332
REMARK  136  A    between atoms: _335  and  _337
REMARK  137  A    between atoms: _337  and  _338
REMARK  138  A    between atoms: _337  and  _340
REMARK  139  A    between atoms: _340  and  _341
REMARK  140  A    between atoms: _344  and  _346
REMARK  141  A    between atoms: _346  and  _347
REMARK  142  A    between atoms: _346  and  _349
REMARK  143  A    between atoms: _349  and  _350
REMARK  144  A    between atoms: _353  and  _355
REMARK  145  A    between atoms: _355  and  _356
REMARK  146  A    between atoms: _355  and  _358
REMARK  147  A    between atoms: _358  and  _359
REMARK  148  A    between atoms: _362  and  _364
REMARK  149  A    between atoms: _364  and  _365
REMARK  150  A    between atoms: _367  and  _369
REMARK  151  A    between atoms: _369  and  _370
REMARK  152  A    between atoms: _373  and  _375
REMARK  153  A    between atoms: _375  and  _376
REMARK  154  A    between atoms: _375  and  _378
REMARK  155  A    between atoms: _378  and  _379
REMARK  156  A    between atoms: _382  and  _384
REMARK  157  A    between atoms: _384  and  _385
REMARK  158  A    between atoms: _384  and  _387
REMARK  159  A    between atoms: _387  and  _388
REMARK  160  A    between atoms: _391  and  _393
REMARK  161  A    between atoms: _393  and  _394
REMARK  162  A    between atoms: _393  and  _396
REMARK  163  A    between atoms: _396  and  _397
REMARK  164  A    between atoms: _400  and  _402
REMARK  165  A    between atoms: _402  and  _403
REMARK  166  A    between atoms: _402  and  _405
REMARK  167  A    between atoms: _408  and  _410
REMARK  168  A    between atoms: _410  and  _411
REMARK  169  A    between atoms: _410  and  _413
REMARK  170  A    between atoms: _413  and  _414
REMARK  171  A    between atoms: _414  and  _415
REMARK  172  A    between atoms: _415  and  _416
REMARK  173  A    between atoms: _416  and  _417
REMARK  174  A    between atoms: _421  and  _423
REMARK  175  A    between atoms: _423  and  _424
REMARK  176  A    between atoms: _423  and  _426
REMARK  177  A    between atoms: _426  and  _427
REMARK  178  A    between atoms: _427  and  _428
REMARK  179  A    between atoms: _430  and  _432
REMARK  180  A    between atoms: _432  and  _433
REMARK  181  A    between atoms: _432  and  _435
REMARK  182  A    between atoms: _435  and  _436
REMARK  183  A    between atoms: _439  and  _441
REMARK  184  A    between atoms: _441  and  _442
REMARK  185  A    between atoms: _444  and  _446
REMARK  186  A    between atoms: _446  and  _447
REMARK  187  A    between atoms: _449  and  _451
REMARK  188  A    between atoms: _451  and  _452
REMARK  189  A    between atoms: _451  and  _454
REMARK  190  A    between atoms: _454  and  _455
REMARK  191  A    between atoms: _458  and  _460
REMARK  192  A    between atoms: _460  and  _461
REMARK  193  A    between atoms: _463  and  _465
REMARK  194  A    between atoms: _465  and  _466
REMARK  195  A    between atoms: _468  and  _470
REMARK  196  A    between atoms: _470  and  _471
REMARK  197  A    between atoms: _470  and  _473
REMARK  198  A    between atoms: _473  and  _474
REMARK  199  A    between atoms: _480  and  _482
REMARK  200  A    between atoms: _482  and  _483
REMARK  201  A    between atoms: _482  and  _485
REMARK  202  A    between atoms: _485  and  _486
REMARK  203  A    between atoms: _489  and  _491
REMARK  204  A    between atoms: _491  and  _492
REMARK  205  A    between atoms: _491  and  _494
REMARK  206  A    between atoms: _497  and  _499
REMARK  207  A    between atoms: _499  and  _500
REMARK  208  A    between atoms: _499  and  _502
REMARK  209  A    between atoms: _502  and  _503
REMARK  210  A    between atoms: _506  and  _508
REMARK  211  A    between atoms: _508  and  _509
REMARK  212  A    between atoms: _508  and  _511
REMARK  213  A    between atoms: _511  and  _512
REMARK  214  A    between atoms: _516  and  _517
REMARK  215  A    between atoms: _522  and  _524
REMARK  216  A    between atoms: _524  and  _525
REMARK  217  A    between atoms: _524  and  _527
REMARK  218  A    between atoms: _530  and  _532
REMARK  219  A    between atoms: _532  and  _533
REMARK  220  A    between atoms: _532  and  _535
REMARK  221  A    between atoms: _535  and  _536
REMARK  222  A    between atoms: _541  and  _543
REMARK  223  A    between atoms: _543  and  _544
REMARK  224  A    between atoms: _543  and  _546
REMARK  225  A    between atoms: _546  and  _547
REMARK  226  A    between atoms: _550  and  _552
REMARK  227  A    between atoms: _552  and  _553
REMARK  228  A    between atoms: _552  and  _555
REMARK  229  A    between atoms: _555  and  _556
REMARK  230  A    between atoms: _559  and  _561
REMARK  231  A    between atoms: _561  and  _562
REMARK  232  A    between atoms: _564  and  _566
REMARK  233  A    between atoms: _566  and  _567
REMARK  234  A    between atoms: _566  and  _569
REMARK  235  A    between atoms: _569  and  _570
REMARK  236  A    between atoms: _570  and  _571
REMARK  237  A    between atoms: _571  and  _572
REMARK  238  A    between atoms: _581  and  _583
REMARK  239  A    between atoms: _583  and  _584
REMARK  240  A    between atoms: _583  and  _586
REMARK  241  A    between atoms: _586  and  _587
REMARK                            x       y       z     vdW  Elec       q    Type
REMARK                         _______ _______ _______ _____ _____    ______ ____
ROOT
ATOM      1  O   HOH     1       8.374  -9.472 -10.563  0.00  0.00    +0.000 OA
ENDROOT
TORSDOF 0
REMARK  Name = ../refined-set-2016/2pk6/2pk6_pocket.pdb
REMARK  241 active torsions:
REMARK  status: ('A' for Active; 'I' for Inactive)
REMARK    1  A    between atoms: _1  and  _3
REMARK    2  A    between atoms: _3  and  _4
REMARK    3  A    between atoms: _3  and  _6
REMARK    4  A    between atoms: _6  and  _7
REMARK    5  A    between atoms: _7  and  _8
REMARK    6  A    between atoms: _8  and  _9
REMARK    7  A    between atoms: _18  and  _20
REMARK    8  A    between atoms: _20  and  _21
REMARK    9  A    between atoms: _20  and  _23
REMARK   10  A    between atoms: _23  and  _24
REMARK   11  A    between atoms: _27  and  _29
REMARK   12  A    between atoms: _29  and  _30
REMARK   13  A    between atoms: _29  and  _32
REMARK   14  A    between atoms: _32  and  _33
REMARK   15  A    between atoms: _36  and  _38
REMARK   16  A    between atoms: _38  and  _39
REMARK   17  A    between atoms: _38  and  _41
REMARK   18  A    between atoms: _41  and  _42
REMARK   19  A    between atoms: _45  and  _47
REMARK   20  A    between atoms: _47  and  _48
REMARK   21  A    between atoms: _47  and  _50
REMARK   22  A    between atoms: _50  and  _51
REMARK   23  A    between atoms: _54  and  _56
REMARK   24  A    between atoms: _56  and  _57
REMARK   25  A    between atoms: _59  and  _61
REMARK   26  A    between atoms: _61  and  _62
REMARK   27  A    between atoms: _65  and  _67
REMARK   28  A    between atoms: _67  and  _68
REMARK   29  A    between atoms: _67  and  _70
REMARK   30  A    between atoms: _70  and  _71
REMARK   31  A    between atoms: _74  and  _76
REMARK   32  A    between atoms: _76  and  _77
REMARK   33  A    between atoms: _76  and  _79
REMARK   34  A    between atoms: _79  and  _80
REMARK   35  A    between atoms: _83  and  _85
REMARK   36  A    between atoms: _85  and  _86
REMARK   37  A    between atoms: _85  and  _88
REMARK   38  A    between atoms: _88  and  _89
REMARK   39  A    between atoms: _92  and  _94
REMARK   40  A    between atoms: _94  and  _95
REMARK   41  A    between atoms: _94  and  _97
REMARK   42  A    between atoms: _100  and  _102
REMARK   43  A    between atoms: _102  and  _103
REMARK   44  A    between atoms: _102  and  _105
REMARK   45  A    between atoms: _105  and  _106
REMARK   46  A    between atoms: _109  and  _111
REMARK   47  A    between atoms: _111  and  _112
REMARK   48  A    between atoms: _111  and  _114
REMARK   49  A    between atoms: _114  and  _115
REMARK   50  A    between atoms: _115  and  _116
REMARK   51  A    between atoms: _116  and  _117
REMARK   52  A    between atoms: _117  and  _118
REMARK   53  A    between atoms: _122  and  _124
REMARK   54  A    between atoms: _124  and  _125
REMARK   55  A    between atoms: _124  and  _127
REMARK   56  A    between atoms: _127  and  _128
REMARK   57  A    between atoms: _128  and  _129
REMARK   58  A    between atoms: _131  and  _133
REMARK   59  A    between atoms: _133  and  _134
REMARK   60  A    between atoms: _133  and  _136
REMARK   61  A    between atoms: _136  and  _137
REMARK   62  A    between atoms: _140  and  _142
REMARK   63  A    between atoms: _142  and  _143
REMARK   64  A    between atoms: _145  and  _147
REMARK   65  A    between atoms: _147  and  _148
REMARK   66  A    between atoms: _150  and  _152
REMARK   67  A    between atoms: _152  and  _153
REMARK   68  A    between atoms: _152  and  _155
REMARK   69  A    between atoms: _155  and  _156
REMARK   70  A    between atoms: _159  and  _161
REMARK   71  A    between atoms: _161  and  _162
REMARK   72  A    between atoms: _164  and  _166
REMARK   73  A    between atoms: _166  and  _167
REMARK   74  A    between atoms: _169  and  _171
REMARK   75  A    between atoms: _171  and  _172
REMARK   76  A    between atoms: _171  and  _174
REMARK   77  A    between atoms: _174  and  _175
REMARK   78  A    between atoms: _181  and  _183
REMARK   79  A    between atoms: _183  and  _184
REMARK   80  A    between atoms: _183  and  _186
REMARK   81  A    between atoms: _186  and  _187
REMARK   82  A    between atoms: _190  and  _192
REMARK   83  A    between atoms: _192  and  _193
REMARK   84  A    between atoms: _192  and  _195
REMARK   85  A    between atoms: _198  and  _200
REMARK   86  A    between atoms: _200  and  _201
REMARK   87  A    between atoms: _200  and  _203
REMARK   88  A    between atoms: _203  and  _204
REMARK   89  A    between atoms: _208  and  _209
REMARK   90  A    between atoms: _214  and  _216
REMARK   91  A    between atoms: _216  and  _217
REMARK   92  A    between atoms: _216  and  _219
REMARK   93  A    between atoms: _219  and  _220
REMARK   94  A    between atoms: _224  and  _225
REMARK   95  A    between atoms: _230  and  _232
REMARK   96  A    between atoms: _232  and  _233
REMARK   97  A    between atoms: _232  and  _235
REMARK   98  A    between atoms: _238  and  _240
REMARK   99  A    between atoms: _240  and  _241
REMARK  100  A    between atoms: _240  and  _243
REMARK  101  A    between atoms: _243  and  _244
REMARK  102  A    between atoms: _249  and  _251
REMARK  103  A    between atoms: _251  and  _252
REMARK  104  A    between atoms: _251  and  _254
REMARK  105  A    between atoms: _254  and  _255
REMARK  106  A    between atoms: _258  and  _260
REMARK  107  A    between atoms: _260  and  _261
REMARK  108  A    between atoms: _260  and  _263
REMARK  109  A    between atoms: _263  and  _264
REMARK  110  A    between atoms: _267  and  _269
REMARK  111  A    between atoms: _269  and  _270
REMARK  112  A    between atoms: _272  and  _274
REMARK  113  A    between atoms: _274  and  _275
REMARK  114  A    between atoms: _274  and  _277
REMARK  115  A    between atoms: _277  and  _278
REMARK  116  A    between atoms: _278  and  _279
REMARK  117  A    between atoms: _279  and  _280
REMARK  118  A    between atoms: _289  and  _291
REMARK  119  A    between atoms: _291  and  _292
REMARK  120  A    between atoms: _291  and  _294
REMARK  121  A    between atoms: _294  and  _295
REMARK  122  A    between atoms: _300  and  _302
REMARK  123  A    between atoms: _302  and  _303
REMARK  124  A    between atoms: _302  and  _305
REMARK  125  A    between atoms: _305  and  _306
REMARK  126  A    between atoms: _306  and  _307
REMARK  127  A    between atoms: _307  and  _308
REMARK  128  A    between atoms: _317  and  _319
REMARK  129  A    between atoms: _319  and  _320
REMARK  130  A    between atoms: _319  and  _322
REMARK  131  A    between atoms: _322  and  _323
REMARK  132  A    between atoms: _326  and  _328
REMARK  133  A    between atoms: _328  and  _329
REMARK  134  A    between atoms: _328  and  _331
REMARK  135  A    between atoms: _331  and  _332
REMARK  136  A    between atoms: _335  and  _337
REMARK  137  A    between atoms: _337  and  _338
REMARK  138  A    between atoms: _337  and  _340
REMARK  139  A    between atoms: _340  and  _341
REMARK  140  A    between atoms: _344  and  _346
REMARK  141  A    between atoms: _346  and  _347
REMARK  142  A    between atoms: _346  and  _349
REMARK  143  A    between atoms: _349  and  _350
REMARK  144  A    between atoms: _353  and  _355
REMARK  145  A    between atoms: _355  and  _356
REMARK  146  A    between atoms: _355  and  _358
REMARK  147  A    between atoms: _358  and  _359
REMARK  148  A    between atoms: _362  and  _364
REMARK  149  A    between atoms: _364  and  _365
REMARK  150  A    between atoms: _367  and  _369
REMARK  151  A    between atoms: _369  and  _370
REMARK  152  A    between atoms: _373  and  _375
REMARK  153  A    between atoms: _375  and  _376
REMARK  154  A    between atoms: _375  and  _378
REMARK  155  A    between atoms: _378  and  _379
REMARK  156  A    between atoms: _382  and  _384
REMARK  157  A    between atoms: _384  and  _385
REMARK  158  A    between atoms: _384  and  _387
REMARK  159  A    between atoms: _387  and  _388
REMARK  160  A    between atoms: _391  and  _393
REMARK  161  A    between atoms: _393  and  _394
REMARK  162  A    between atoms: _393  and  _396
REMARK  163  A    between atoms: _396  and  _397
REMARK  164  A    between atoms: _400  and  _402
REMARK  165  A    between atoms: _402  and  _403
REMARK  166  A    between atoms: _402  and  _405
REMARK  167  A    between atoms: _408  and  _410
REMARK  168  A    between atoms: _410  and  _411
REMARK  169  A    between atoms: _410  and  _413
REMARK  170  A    between atoms: _413  and  _414
REMARK  171  A    between atoms: _414  and  _415
REMARK  172  A    between atoms: _415  and  _416
REMARK  173  A    between atoms: _416  and  _417
REMARK  174  A    between atoms: _421  and  _423
REMARK  175  A    between atoms: _423  and  _424
REMARK  176  A    between atoms: _423  and  _426
REMARK  177  A    between atoms: _426  and  _427
REMARK  178  A    between atoms: _427  and  _428
REMARK  179  A    between atoms: _430  and  _432
REMARK  180  A    between atoms: _432  and  _433
REMARK  181  A    between atoms: _432  and  _435
REMARK  182  A    between atoms: _435  and  _436
REMARK  183  A    between atoms: _439  and  _441
REMARK  184  A    between atoms: _441  and  _442
REMARK  185  A    between atoms: _444  and  _446
REMARK  186  A    between atoms: _446  and  _447
REMARK  187  A    between atoms: _449  and  _451
REMARK  188  A    between atoms: _451  and  _452
REMARK  189  A    between atoms: _451  and  _454
REMARK  190  A    between atoms: _454  and  _455
REMARK  191  A    between atoms: _458  and  _460
REMARK  192  A    between atoms: _460  and  _461
REMARK  193  A    between atoms: _463  and  _465
REMARK  194  A    between atoms: _465  and  _466
REMARK  195  A    between atoms: _468  and  _470
REMARK  196  A    between atoms: _470  and  _471
REMARK  197  A    between atoms: _470  and  _473
REMARK  198  A    between atoms: _473  and  _474
REMARK  199  A    between atoms: _480  and  _482
REMARK  200  A    between atoms: _482  and  _483
REMARK  201  A    between atoms: _482  and  _485
REMARK  202  A    between atoms: _485  and  _486
REMARK  203  A    between atoms: _489  and  _491
REMARK  204  A    between atoms: _491  and  _492
REMARK  205  A    between atoms: _491  and  _494
REMARK  206  A    between atoms: _497  and  _499
REMARK  207  A    between atoms: _499  and  _500
REMARK  208  A    between atoms: _499  and  _502
REMARK  209  A    between atoms: _502  and  _503
REMARK  210  A    between atoms: _506  and  _508
REMARK  211  A    between atoms: _508  and  _509
REMARK  212  A    between atoms: _508  and  _511
REMARK  213  A    between atoms: _511  and  _512
REMARK  214  A    between atoms: _516  and  _517
REMARK  215  A    between atoms: _522  and  _524
REMARK  216  A    between atoms: _524  and  _525
REMARK  217  A    between atoms: _524  and  _527
REMARK  218  A    between atoms: _530  and  _532
REMARK  219  A    between atoms: _532  and  _533
REMARK  220  A    between atoms: _532  and  _535
REMARK  221  A    between atoms: _535  and  _536
REMARK  222  A    between atoms: _541  and  _543
REMARK  223  A    between atoms: _543  and  _544
REMARK  224  A    between atoms: _543  and  _546
REMARK  225  A    between atoms: _546  and  _547
REMARK  226  A    between atoms: _550  and  _552
REMARK  227  A    between atoms: _552  and  _553
REMARK  228  A    between atoms: _552  and  _555
REMARK  229  A    between atoms: _555  and  _556
REMARK  230  A    between atoms: _559  and  _561
REMARK  231  A    between atoms: _561  and  _562
REMARK  232  A    between atoms: _564  and  _566
REMARK  233  A    between atoms: _566  and  _567
REMARK  234  A    between atoms: _566  and  _569
REMARK  235  A    between atoms: _569  and  _570
REMARK  236  A    between atoms: _570  and  _571
REMARK  237  A    between atoms: _571  and  _572
REMARK  238  A    between atoms: _581  and  _583
REMARK  239  A    between atoms: _583  and  _584
REMARK  240  A    between atoms: _583  and  _586
REMARK  241  A    between atoms: _586  and  _587
REMARK                            x       y       z     vdW  Elec       q    Type
REMARK                         _______ _______ _______ _____ _____    ______ ____
ROOT
ATOM      1  O   HOH     1       3.419 -17.042 -16.083  0.00  0.00    +0.000 OA
ENDROOT
TORSDOF 0
REMARK  Name = ../refined-set-2016/2pk6/2pk6_pocket.pdb
REMARK  241 active torsions:
REMARK  status: ('A' for Active; 'I' for Inactive)
REMARK    1  A    between atoms: _1  and  _3
REMARK    2  A    between atoms: _3  and  _4
REMARK    3  A    between atoms: _3  and  _6
REMARK    4  A    between atoms: _6  and  _7
REMARK    5  A    between atoms: _7  and  _8
REMARK    6  A    between atoms: _8  and  _9
REMARK    7  A    between atoms: _18  and  _20
REMARK    8  A    between atoms: _20  and  _21
REMARK    9  A    between atoms: _20  and  _23
REMARK   10  A    between atoms: _23  and  _24
REMARK   11  A    between atoms: _27  and  _29
REMARK   12  A    between atoms: _29  and  _30
REMARK   13  A    between atoms: _29  and  _32
REMARK   14  A    between atoms: _32  and  _33
REMARK   15  A    between atoms: _36  and  _38
REMARK   16  A    between atoms: _38  and  _39
REMARK   17  A    between atoms: _38  and  _41
REMARK   18  A    between atoms: _41  and  _42
REMARK   19  A    between atoms: _45  and  _47
REMARK   20  A    between atoms: _47  and  _48
REMARK   21  A    between atoms: _47  and  _50
REMARK   22  A    between atoms: _50  and  _51
REMARK   23  A    between atoms: _54  and  _56
REMARK   24  A    between atoms: _56  and  _57
REMARK   25  A    between atoms: _59  and  _61
REMARK   26  A    between atoms: _61  and  _62
REMARK   27  A    between atoms: _65  and  _67
REMARK   28  A    between atoms: _67  and  _68
REMARK   29  A    between atoms: _67  and  _70
REMARK   30  A    between atoms: _70  and  _71
REMARK   31  A    between atoms: _74  and  _76
REMARK   32  A    between atoms: _76  and  _77
REMARK   33  A    between atoms: _76  and  _79
REMARK   34  A    between atoms: _79  and  _80
REMARK   35  A    between atoms: _83  and  _85
REMARK   36  A    between atoms: _85  and  _86
REMARK   37  A    between atoms: _85  and  _88
REMARK   38  A    between atoms: _88  and  _89
REMARK   39  A    between atoms: _92  and  _94
REMARK   40  A    between atoms: _94  and  _95
REMARK   41  A    between atoms: _94  and  _97
REMARK   42  A    between atoms: _100  and  _102
REMARK   43  A    between atoms: _102  and  _103
REMARK   44  A    between atoms: _102  and  _105
REMARK   45  A    between atoms: _105  and  _106
REMARK   46  A    between atoms: _109  and  _111
REMARK   47  A    between atoms: _111  and  _112
REMARK   48  A    between atoms: _111  and  _114
REMARK   49  A    between atoms: _114  and  _115
REMARK   50  A    between atoms: _115  and  _116
REMARK   51  A    between atoms: _116  and  _117
REMARK   52  A    between atoms: _117  and  _118
REMARK   53  A    between atoms: _122  and  _124
REMARK   54  A    between atoms: _124  and  _125
REMARK   55  A    between atoms: _124  and  _127
REMARK   56  A    between atoms: _127  and  _128
REMARK   57  A    between atoms: _128  and  _129
REMARK   58  A    between atoms: _131  and  _133
REMARK   59  A    between atoms: _133  and  _134
REMARK   60  A    between atoms: _133  and  _136
REMARK   61  A    between atoms: _136  and  _137
REMARK   62  A    between atoms: _140  and  _142
REMARK   63  A    between atoms: _142  and  _143
REMARK   64  A    between atoms: _145  and  _147
REMARK   65  A    between atoms: _147  and  _148
REMARK   66  A    between atoms: _150  and  _152
REMARK   67  A    between atoms: _152  and  _153
REMARK   68  A    between atoms: _152  and  _155
REMARK   69  A    between atoms: _155  and  _156
REMARK   70  A    between atoms: _159  and  _161
REMARK   71  A    between atoms: _161  and  _162
REMARK   72  A    between atoms: _164  and  _166
REMARK   73  A    between atoms: _166  and  _167
REMARK   74  A    between atoms: _169  and  _171
REMARK   75  A    between atoms: _171  and  _172
REMARK   76  A    between atoms: _171  and  _174
REMARK   77  A    between atoms: _174  and  _175
REMARK   78  A    between atoms: _181  and  _183
REMARK   79  A    between atoms: _183  and  _184
REMARK   80  A    between atoms: _183  and  _186
REMARK   81  A    between atoms: _186  and  _187
REMARK   82  A    between atoms: _190  and  _192
REMARK   83  A    between atoms: _192  and  _193
REMARK   84  A    between atoms: _192  and  _195
REMARK   85  A    between atoms: _198  and  _200
REMARK   86  A    between atoms: _200  and  _201
REMARK   87  A    between atoms: _200  and  _203
REMARK   88  A    between atoms: _203  and  _204
REMARK   89  A    between atoms: _208  and  _209
REMARK   90  A    between atoms: _214  and  _216
REMARK   91  A    between atoms: _216  and  _217
REMARK   92  A    between atoms: _216  and  _219
REMARK   93  A    between atoms: _219  and  _220
REMARK   94  A    between atoms: _224  and  _225
REMARK   95  A    between atoms: _230  and  _232
REMARK   96  A    between atoms: _232  and  _233
REMARK   97  A    between atoms: _232  and  _235
REMARK   98  A    between atoms: _238  and  _240
REMARK   99  A    between atoms: _240  and  _241
REMARK  100  A    between atoms: _240  and  _243
REMARK  101  A    between atoms: _243  and  _244
REMARK  102  A    between atoms: _249  and  _251
REMARK  103  A    between atoms: _251  and  _252
REMARK  104  A    between atoms: _251  and  _254
REMARK  105  A    between atoms: _254  and  _255
REMARK  106  A    between atoms: _258  and  _260
REMARK  107  A    between atoms: _260  and  _261
REMARK  108  A    between atoms: _260  and  _263
REMARK  109  A    between atoms: _263  and  _264
REMARK  110  A    between atoms: _267  and  _269
REMARK  111  A    between atoms: _269  and  _270
REMARK  112  A    between atoms: _272  and  _274
REMARK  113  A    between atoms: _274  and  _275
REMARK  114  A    between atoms: _274  and  _277
REMARK  115  A    between atoms: _277  and  _278
REMARK  116  A    between atoms: _278  and  _279
REMARK  117  A    between atoms: _279  and  _280
REMARK  118  A    between atoms: _289  and  _291
REMARK  119  A    between atoms: _291  and  _292
REMARK  120  A    between atoms: _291  and  _294
REMARK  121  A    between atoms: _294  and  _295
REMARK  122  A    between atoms: _300  and  _302
REMARK  123  A    between atoms: _302  and  _303
REMARK  124  A    between atoms: _302  and  _305
REMARK  125  A    between atoms: _305  and  _306
REMARK  126  A    between atoms: _306  and  _307
REMARK  127  A    between atoms: _307  and  _308
REMARK  128  A    between atoms: _317  and  _319
REMARK  129  A    between atoms: _319  and  _320
REMARK  130  A    between atoms: _319  and  _322
REMARK  131  A    between atoms: _322  and  _323
REMARK  132  A    between atoms: _326  and  _328
REMARK  133  A    between atoms: _328  and  _329
REMARK  134  A    between atoms: _328  and  _331
REMARK  135  A    between atoms: _331  and  _332
REMARK  136  A    between atoms: _335  and  _337
REMARK  137  A    between atoms: _337  and  _338
REMARK  138  A    between atoms: _337  and  _340
REMARK  139  A    between atoms: _340  and  _341
REMARK  140  A    between atoms: _344  and  _346
REMARK  141  A    between atoms: _346  and  _347
REMARK  142  A    between atoms: _346  and  _349
REMARK  143  A    between atoms: _349  and  _350
REMARK  144  A    between atoms: _353  and  _355
REMARK  145  A    between atoms: _355  and  _356
REMARK  146  A    between atoms: _355  and  _358
REMARK  147  A    between atoms: _358  and  _359
REMARK  148  A    between atoms: _362  and  _364
REMARK  149  A    between atoms: _364  and  _365
REMARK  150  A    between atoms: _367  and  _369
REMARK  151  A    between atoms: _369  and  _370
REMARK  152  A    between atoms: _373  and  _375
REMARK  153  A    between atoms: _375  and  _376
REMARK  154  A    between atoms: _375  and  _378
REMARK  155  A    between atoms: _378  and  _379
REMARK  156  A    between atoms: _382  and  _384
REMARK  157  A    between atoms: _384  and  _385
REMARK  158  A    between atoms: _384  and  _387
REMARK  159  A    between atoms: _387  and  _388
REMARK  160  A    between atoms: _391  and  _393
REMARK  161  A    between atoms: _393  and  _394
REMARK  162  A    between atoms: _393  and  _396
REMARK  163  A    between atoms: _396  and  _397
REMARK  164  A    between atoms: _400  and  _402
REMARK  165  A    between atoms: _402  and  _403
REMARK  166  A    between atoms: _402  and  _405
REMARK  167  A    between atoms: _408  and  _410
REMARK  168  A    between atoms: _410  and  _411
REMARK  169  A    between atoms: _410  and  _413
REMARK  170  A    between atoms: _413  and  _414
REMARK  171  A    between atoms: _414  and  _415
REMARK  172  A    between atoms: _415  and  _416
REMARK  173  A    between atoms: _416  and  _417
REMARK  174  A    between atoms: _421  and  _423
REMARK  175  A    between atoms: _423  and  _424
REMARK  176  A    between atoms: _423  and  _426
REMARK  177  A    between atoms: _426  and  _427
REMARK  178  A    between atoms: _427  and  _428
REMARK  179  A    between atoms: _430  and  _432
REMARK  180  A    between atoms: _432  and  _433
REMARK  181  A    between atoms: _432  and  _435
REMARK  182  A    between atoms: _435  and  _436
REMARK  183  A    between atoms: _439  and  _441
REMARK  184  A    between atoms: _441  and  _442
REMARK  185  A    between atoms: _444  and  _446
REMARK  186  A    between atoms: _446  and  _447
REMARK  187  A    between atoms: _449  and  _451
REMARK  188  A    between atoms: _451  and  _452
REMARK  189  A    between atoms: _451  and  _454
REMARK  190  A    between atoms: _454  and  _455
REMARK  191  A    between atoms: _458  and  _460
REMARK  192  A    between atoms: _460  and  _461
REMARK  193  A    between atoms: _463  and  _465
REMARK  194  A    between atoms: _465  and  _466
REMARK  195  A    between atoms: _468  and  _470
REMARK  196  A    between atoms: _470  and  _471
REMARK  197  A    between atoms: _470  and  _473
REMARK  198  A    between atoms: _473  and  _474
REMARK  199  A    between atoms: _480  and  _482
REMARK  200  A    between atoms: _482  and  _483
REMARK  201  A    between atoms: _482  and  _485
REMARK  202  A    between atoms: _485  and  _486
REMARK  203  A    between atoms: _489  and  _491
REMARK  204  A    between atoms: _491  and  _492
REMARK  205  A    between atoms: _491  and  _494
REMARK  206  A    between atoms: _497  and  _499
REMARK  207  A    between atoms: _499  and  _500
REMARK  208  A    between atoms: _499  and  _502
REMARK  209  A    between atoms: _502  and  _503
REMARK  210  A    between atoms: _506  and  _508
REMARK  211  A    between atoms: _508  and  _509
REMARK  212  A    between atoms: _508  and  _511
REMARK  213  A    between atoms: _511  and  _512
REMARK  214  A    between atoms: _516  and  _517
REMARK  215  A    between atoms: _522  and  _524
REMARK  216  A    between atoms: _524  and  _525
REMARK  217  A    between atoms: _524  and  _527
REMARK  218  A    between atoms: _530  and  _532
REMARK  219  A    between atoms: _532  and  _533
REMARK  220  A    between atoms: _532  and  _535
REMARK  221  A    between atoms: _535  and  _536
REMARK  222  A    between atoms: _541  and  _543
REMARK  223  A    between atoms: _543  and  _544
REMARK  224  A    between atoms: _543  and  _546
REMARK  225  A    between atoms: _546  and  _547
REMARK  226  A    between atoms: _550  and  _552
REMARK  227  A    between atoms: _552  and  _553
REMARK  228  A    between atoms: _552  and  _555
REMARK  229  A    between atoms: _555  and  _556
REMARK  230  A    between atoms: _559  and  _561
REMARK  231  A    between atoms: _561  and  _562
REMARK  232  A    between atoms: _564  and  _566
REMARK  233  A    between atoms: _566  and  _567
REMARK  234  A    between atoms: _566  and  _569
REMARK  235  A    between atoms: _569  and  _570
REMARK  236  A    between atoms: _570  and  _571
REMARK  237  A    between atoms: _571  and  _572
REMARK  238  A    between atoms: _581  and  _583
REMARK  239  A    between atoms: _583  and  _584
REMARK  240  A    between atoms: _583  and  _586
REMARK  241  A    between atoms: _586  and  _587
REMARK                            x       y       z     vdW  Elec       q    Type
REMARK                         _______ _______ _______ _____ _____    ______ ____
ROOT
ATOM      1  O   HOH     1       7.694  -7.622 -17.528  0.00  0.00    +0.000 OA
ENDROOT
TORSDOF 0
REMARK  Name = ../refined-set-2016/2pk6/2pk6_pocket.pdb
REMARK  241 active torsions:
REMARK  status: ('A' for Active; 'I' for Inactive)
REMARK    1  A    between atoms: _1  and  _3
REMARK    2  A    between atoms: _3  and  _4
REMARK    3  A    between atoms: _3  and  _6
REMARK    4  A    between atoms: _6  and  _7
REMARK    5  A    between atoms: _7  and  _8
REMARK    6  A    between atoms: _8  and  _9
REMARK    7  A    between atoms: _18  and  _20
REMARK    8  A    between atoms: _20  and  _21
REMARK    9  A    between atoms: _20  and  _23
REMARK   10  A    between atoms: _23  and  _24
REMARK   11  A    between atoms: _27  and  _29
REMARK   12  A    between atoms: _29  and  _30
REMARK   13  A    between atoms: _29  and  _32
REMARK   14  A    between atoms: _32  and  _33
REMARK   15  A    between atoms: _36  and  _38
REMARK   16  A    between atoms: _38  and  _39
REMARK   17  A    between atoms: _38  and  _41
REMARK   18  A    between atoms: _41  and  _42
REMARK   19  A    between atoms: _45  and  _47
REMARK   20  A    between atoms: _47  and  _48
REMARK   21  A    between atoms: _47  and  _50
REMARK   22  A    between atoms: _50  and  _51
REMARK   23  A    between atoms: _54  and  _56
REMARK   24  A    between atoms: _56  and  _57
REMARK   25  A    between atoms: _59  and  _61
REMARK   26  A    between atoms: _61  and  _62
REMARK   27  A    between atoms: _65  and  _67
REMARK   28  A    between atoms: _67  and  _68
REMARK   29  A    between atoms: _67  and  _70
REMARK   30  A    between atoms: _70  and  _71
REMARK   31  A    between atoms: _74  and  _76
REMARK   32  A    between atoms: _76  and  _77
REMARK   33  A    between atoms: _76  and  _79
REMARK   34  A    between atoms: _79  and  _80
REMARK   35  A    between atoms: _83  and  _85
REMARK   36  A    between atoms: _85  and  _86
REMARK   37  A    between atoms: _85  and  _88
REMARK   38  A    between atoms: _88  and  _89
REMARK   39  A    between atoms: _92  and  _94
REMARK   40  A    between atoms: _94  and  _95
REMARK   41  A    between atoms: _94  and  _97
REMARK   42  A    between atoms: _100  and  _102
REMARK   43  A    between atoms: _102  and  _103
REMARK   44  A    between atoms: _102  and  _105
REMARK   45  A    between atoms: _105  and  _106
REMARK   46  A    between atoms: _109  and  _111
REMARK   47  A    between atoms: _111  and  _112
REMARK   48  A    between atoms: _111  and  _114
REMARK   49  A    between atoms: _114  and  _115
REMARK   50  A    between atoms: _115  and  _116
REMARK   51  A    between atoms: _116  and  _117
REMARK   52  A    between atoms: _117  and  _118
REMARK   53  A    between atoms: _122  and  _124
REMARK   54  A    between atoms: _124  and  _125
REMARK   55  A    between atoms: _124  and  _127
REMARK   56  A    between atoms: _127  and  _128
REMARK   57  A    between atoms: _128  and  _129
REMARK   58  A    between atoms: _131  and  _133
REMARK   59  A    between atoms: _133  and  _134
REMARK   60  A    between atoms: _133  and  _136
REMARK   61  A    between atoms: _136  and  _137
REMARK   62  A    between atoms: _140  and  _142
REMARK   63  A    between atoms: _142  and  _143
REMARK   64  A    between atoms: _145  and  _147
REMARK   65  A    between atoms: _147  and  _148
REMARK   66  A    between atoms: _150  and  _152
REMARK   67  A    between atoms: _152  and  _153
REMARK   68  A    between atoms: _152  and  _155
REMARK   69  A    between atoms: _155  and  _156
REMARK   70  A    between atoms: _159  and  _161
REMARK   71  A    between atoms: _161  and  _162
REMARK   72  A    between atoms: _164  and  _166
REMARK   73  A    between atoms: _166  and  _167
REMARK   74  A    between atoms: _169  and  _171
REMARK   75  A    between atoms: _171  and  _172
REMARK   76  A    between atoms: _171  and  _174
REMARK   77  A    between atoms: _174  and  _175
REMARK   78  A    between atoms: _181  and  _183
REMARK   79  A    between atoms: _183  and  _184
REMARK   80  A    between atoms: _183  and  _186
REMARK   81  A    between atoms: _186  and  _187
REMARK   82  A    between atoms: _190  and  _192
REMARK   83  A    between atoms: _192  and  _193
REMARK   84  A    between atoms: _192  and  _195
REMARK   85  A    between atoms: _198  and  _200
REMARK   86  A    between atoms: _200  and  _201
REMARK   87  A    between atoms: _200  and  _203
REMARK   88  A    between atoms: _203  and  _204
REMARK   89  A    between atoms: _208  and  _209
REMARK   90  A    between atoms: _214  and  _216
REMARK   91  A    between atoms: _216  and  _217
REMARK   92  A    between atoms: _216  and  _219
REMARK   93  A    between atoms: _219  and  _220
REMARK   94  A    between atoms: _224  and  _225
REMARK   95  A    between atoms: _230  and  _232
REMARK   96  A    between atoms: _232  and  _233
REMARK   97  A    between atoms: _232  and  _235
REMARK   98  A    between atoms: _238  and  _240
REMARK   99  A    between atoms: _240  and  _241
REMARK  100  A    between atoms: _240  and  _243
REMARK  101  A    between atoms: _243  and  _244
REMARK  102  A    between atoms: _249  and  _251
REMARK  103  A    between atoms: _251  and  _252
REMARK  104  A    between atoms: _251  and  _254
REMARK  105  A    between atoms: _254  and  _255
REMARK  106  A    between atoms: _258  and  _260
REMARK  107  A    between atoms: _260  and  _261
REMARK  108  A    between atoms: _260  and  _263
REMARK  109  A    between atoms: _263  and  _264
REMARK  110  A    between atoms: _267  and  _269
REMARK  111  A    between atoms: _269  and  _270
REMARK  112  A    between atoms: _272  and  _274
REMARK  113  A    between atoms: _274  and  _275
REMARK  114  A    between atoms: _274  and  _277
REMARK  115  A    between atoms: _277  and  _278
REMARK  116  A    between atoms: _278  and  _279
REMARK  117  A    between atoms: _279  and  _280
REMARK  118  A    between atoms: _289  and  _291
REMARK  119  A    between atoms: _291  and  _292
REMARK  120  A    between atoms: _291  and  _294
REMARK  121  A    between atoms: _294  and  _295
REMARK  122  A    between atoms: _300  and  _302
REMARK  123  A    between atoms: _302  and  _303
REMARK  124  A    between atoms: _302  and  _305
REMARK  125  A    between atoms: _305  and  _306
REMARK  126  A    between atoms: _306  and  _307
REMARK  127  A    between atoms: _307  and  _308
REMARK  128  A    between atoms: _317  and  _319
REMARK  129  A    between atoms: _319  and  _320
REMARK  130  A    between atoms: _319  and  _322
REMARK  131  A    between atoms: _322  and  _323
REMARK  132  A    between atoms: _326  and  _328
REMARK  133  A    between atoms: _328  and  _329
REMARK  134  A    between atoms: _328  and  _331
REMARK  135  A    between atoms: _331  and  _332
REMARK  136  A    between atoms: _335  and  _337
REMARK  137  A    between atoms: _337  and  _338
REMARK  138  A    between atoms: _337  and  _340
REMARK  139  A    between atoms: _340  and  _341
REMARK  140  A    between atoms: _344  and  _346
REMARK  141  A    between atoms: _346  and  _347
REMARK  142  A    between atoms: _346  and  _349
REMARK  143  A    between atoms: _349  and  _350
REMARK  144  A    between atoms: _353  and  _355
REMARK  145  A    between atoms: _355  and  _356
REMARK  146  A    between atoms: _355  and  _358
REMARK  147  A    between atoms: _358  and  _359
REMARK  148  A    between atoms: _362  and  _364
REMARK  149  A    between atoms: _364  and  _365
REMARK  150  A    between atoms: _367  and  _369
REMARK  151  A    between atoms: _369  and  _370
REMARK  152  A    between atoms: _373  and  _375
REMARK  153  A    between atoms: _375  and  _376
REMARK  154  A    between atoms: _375  and  _378
REMARK  155  A    between atoms: _378  and  _379
REMARK  156  A    between atoms: _382  and  _384
REMARK  157  A    between atoms: _384  and  _385
REMARK  158  A    between atoms: _384  and  _387
REMARK  159  A    between atoms: _387  and  _388
REMARK  160  A    between atoms: _391  and  _393
REMARK  161  A    between atoms: _393  and  _394
REMARK  162  A    between atoms: _393  and  _396
REMARK  163  A    between atoms: _396  and  _397
REMARK  164  A    between atoms: _400  and  _402
REMARK  165  A    between atoms: _402  and  _403
REMARK  166  A    between atoms: _402  and  _405
REMARK  167  A    between atoms: _408  and  _410
REMARK  168  A    between atoms: _410  and  _411
REMARK  169  A    between atoms: _410  and  _413
REMARK  170  A    between atoms: _413  and  _414
REMARK  171  A    between atoms: _414  and  _415
REMARK  172  A    between atoms: _415  and  _416
REMARK  173  A    between atoms: _416  and  _417
REMARK  174  A    between atoms: _421  and  _423
REMARK  175  A    between atoms: _423  and  _424
REMARK  176  A    between atoms: _423  and  _426
REMARK  177  A    between atoms: _426  and  _427
REMARK  178  A    between atoms: _427  and  _428
REMARK  179  A    between atoms: _430  and  _432
REMARK  180  A    between atoms: _432  and  _433
REMARK  181  A    between atoms: _432  and  _435
REMARK  182  A    between atoms: _435  and  _436
REMARK  183  A    between atoms: _439  and  _441
REMARK  184  A    between atoms: _441  and  _442
REMARK  185  A    between atoms: _444  and  _446
REMARK  186  A    between atoms: _446  and  _447
REMARK  187  A    between atoms: _449  and  _451
REMARK  188  A    between atoms: _451  and  _452
REMARK  189  A    between atoms: _451  and  _454
REMARK  190  A    between atoms: _454  and  _455
REMARK  191  A    between atoms: _458  and  _460
REMARK  192  A    between atoms: _460  and  _461
REMARK  193  A    between atoms: _463  and  _465
REMARK  194  A    between atoms: _465  and  _466
REMARK  195  A    between atoms: _468  and  _470
REMARK  196  A    between atoms: _470  and  _471
REMARK  197  A    between atoms: _470  and  _473
REMARK  198  A    between atoms: _473  and  _474
REMARK  199  A    between atoms: _480  and  _482
REMARK  200  A    between atoms: _482  and  _483
REMARK  201  A    between atoms: _482  and  _485
REMARK  202  A    between atoms: _485  and  _486
REMARK  203  A    between atoms: _489  and  _491
REMARK  204  A    between atoms: _491  and  _492
REMARK  205  A    between atoms: _491  and  _494
REMARK  206  A    between atoms: _497  and  _499
REMARK  207  A    between atoms: _499  and  _500
REMARK  208  A    between atoms: _499  and  _502
REMARK  209  A    between atoms: _502  and  _503
REMARK  210  A    between atoms: _506  and  _508
REMARK  211  A    between atoms: _508  and  _509
REMARK  212  A    between atoms: _508  and  _511
REMARK  213  A    between atoms: _511  and  _512
REMARK  214  A    between atoms: _516  and  _517
REMARK  215  A    between atoms: _522  and  _524
REMARK  216  A    between atoms: _524  and  _525
REMARK  217  A    between atoms: _524  and  _527
REMARK  218  A    between atoms: _530  and  _532
REMARK  219  A    between atoms: _532  and  _533
REMARK  220  A    between atoms: _532  and  _535
REMARK  221  A    between atoms: _535  and  _536
REMARK  222  A    between atoms: _541  and  _543
REMARK  223  A    between atoms: _543  and  _544
REMARK  224  A    between atoms: _543  and  _546
REMARK  225  A    between atoms: _546  and  _547
REMARK  226  A    between atoms: _550  and  _552
REMARK  227  A    between atoms: _552  and  _553
REMARK  228  A    between atoms: _552  and  _555
REMARK  229  A    between atoms: _555  and  _556
REMARK  230  A    between atoms: _559  and  _561
REMARK  231  A    between atoms: _561  and  _562
REMARK  232  A    between atoms: _564  and  _566
REMARK  233  A    between atoms: _566  and  _567
REMARK  234  A    between atoms: _566  and  _569
REMARK  235  A    between atoms: _569  and  _570
REMARK  236  A    between atoms: _570  and  _571
REMARK  237  A    between atoms: _571  and  _572
REMARK  238  A    between atoms: _581  and  _583
REMARK  239  A    between atoms: _583  and  _584
REMARK  240  A    between atoms: _583  and  _586
REMARK  241  A    between atoms: _586  and  _587
REMARK                            x       y       z     vdW  Elec       q    Type
REMARK                         _______ _______ _______ _____ _____    ______ ____
ROOT
ATOM      1  O   HOH     1      20.191 -18.573  -7.421  0.00  0.00    +0.000 OA
ENDROOT
TORSDOF 0
REMARK  Name = ../refined-set-2016/2pk6/2pk6_pocket.pdb
REMARK  241 active torsions:
REMARK  status: ('A' for Active; 'I' for Inactive)
REMARK    1  A    between atoms: _1  and  _3
REMARK    2  A    between atoms: _3  and  _4
REMARK    3  A    between atoms: _3  and  _6
REMARK    4  A    between atoms: _6  and  _7
REMARK    5  A    between atoms: _7  and  _8
REMARK    6  A    between atoms: _8  and  _9
REMARK    7  A    between atoms: _18  and  _20
REMARK    8  A    between atoms: _20  and  _21
REMARK    9  A    between atoms: _20  and  _23
REMARK   10  A    between atoms: _23  and  _24
REMARK   11  A    between atoms: _27  and  _29
REMARK   12  A    between atoms: _29  and  _30
REMARK   13  A    between atoms: _29  and  _32
REMARK   14  A    between atoms: _32  and  _33
REMARK   15  A    between atoms: _36  and  _38
REMARK   16  A    between atoms: _38  and  _39
REMARK   17  A    between atoms: _38  and  _41
REMARK   18  A    between atoms: _41  and  _42
REMARK   19  A    between atoms: _45  and  _47
REMARK   20  A    between atoms: _47  and  _48
REMARK   21  A    between atoms: _47  and  _50
REMARK   22  A    between atoms: _50  and  _51
REMARK   23  A    between atoms: _54  and  _56
REMARK   24  A    between atoms: _56  and  _57
REMARK   25  A    between atoms: _59  and  _61
REMARK   26  A    between atoms: _61  and  _62
REMARK   27  A    between atoms: _65  and  _67
REMARK   28  A    between atoms: _67  and  _68
REMARK   29  A    between atoms: _67  and  _70
REMARK   30  A    between atoms: _70  and  _71
REMARK   31  A    between atoms: _74  and  _76
REMARK   32  A    between atoms: _76  and  _77
REMARK   33  A    between atoms: _76  and  _79
REMARK   34  A    between atoms: _79  and  _80
REMARK   35  A    between atoms: _83  and  _85
REMARK   36  A    between atoms: _85  and  _86
REMARK   37  A    between atoms: _85  and  _88
REMARK   38  A    between atoms: _88  and  _89
REMARK   39  A    between atoms: _92  and  _94
REMARK   40  A    between atoms: _94  and  _95
REMARK   41  A    between atoms: _94  and  _97
REMARK   42  A    between atoms: _100  and  _102
REMARK   43  A    between atoms: _102  and  _103
REMARK   44  A    between atoms: _102  and  _105
REMARK   45  A    between atoms: _105  and  _106
REMARK   46  A    between atoms: _109  and  _111
REMARK   47  A    between atoms: _111  and  _112
REMARK   48  A    between atoms: _111  and  _114
REMARK   49  A    between atoms: _114  and  _115
REMARK   50  A    between atoms: _115  and  _116
REMARK   51  A    between atoms: _116  and  _117
REMARK   52  A    between atoms: _117  and  _118
REMARK   53  A    between atoms: _122  and  _124
REMARK   54  A    between atoms: _124  and  _125
REMARK   55  A    between atoms: _124  and  _127
REMARK   56  A    between atoms: _127  and  _128
REMARK   57  A    between atoms: _128  and  _129
REMARK   58  A    between atoms: _131  and  _133
REMARK   59  A    between atoms: _133  and  _134
REMARK   60  A    between atoms: _133  and  _136
REMARK   61  A    between atoms: _136  and  _137
REMARK   62  A    between atoms: _140  and  _142
REMARK   63  A    between atoms: _142  and  _143
REMARK   64  A    between atoms: _145  and  _147
REMARK   65  A    between atoms: _147  and  _148
REMARK   66  A    between atoms: _150  and  _152
REMARK   67  A    between atoms: _152  and  _153
REMARK   68  A    between atoms: _152  and  _155
REMARK   69  A    between atoms: _155  and  _156
REMARK   70  A    between atoms: _159  and  _161
REMARK   71  A    between atoms: _161  and  _162
REMARK   72  A    between atoms: _164  and  _166
REMARK   73  A    between atoms: _166  and  _167
REMARK   74  A    between atoms: _169  and  _171
REMARK   75  A    between atoms: _171  and  _172
REMARK   76  A    between atoms: _171  and  _174
REMARK   77  A    between atoms: _174  and  _175
REMARK   78  A    between atoms: _181  and  _183
REMARK   79  A    between atoms: _183  and  _184
REMARK   80  A    between atoms: _183  and  _186
REMARK   81  A    between atoms: _186  and  _187
REMARK   82  A    between atoms: _190  and  _192
REMARK   83  A    between atoms: _192  and  _193
REMARK   84  A    between atoms: _192  and  _195
REMARK   85  A    between atoms: _198  and  _200
REMARK   86  A    between atoms: _200  and  _201
REMARK   87  A    between atoms: _200  and  _203
REMARK   88  A    between atoms: _203  and  _204
REMARK   89  A    between atoms: _208  and  _209
REMARK   90  A    between atoms: _214  and  _216
REMARK   91  A    between atoms: _216  and  _217
REMARK   92  A    between atoms: _216  and  _219
REMARK   93  A    between atoms: _219  and  _220
REMARK   94  A    between atoms: _224  and  _225
REMARK   95  A    between atoms: _230  and  _232
REMARK   96  A    between atoms: _232  and  _233
REMARK   97  A    between atoms: _232  and  _235
REMARK   98  A    between atoms: _238  and  _240
REMARK   99  A    between atoms: _240  and  _241
REMARK  100  A    between atoms: _240  and  _243
REMARK  101  A    between atoms: _243  and  _244
REMARK  102  A    between atoms: _249  and  _251
REMARK  103  A    between atoms: _251  and  _252
REMARK  104  A    between atoms: _251  and  _254
REMARK  105  A    between atoms: _254  and  _255
REMARK  106  A    between atoms: _258  and  _260
REMARK  107  A    between atoms: _260  and  _261
REMARK  108  A    between atoms: _260  and  _263
REMARK  109  A    between atoms: _263  and  _264
REMARK  110  A    between atoms: _267  and  _269
REMARK  111  A    between atoms: _269  and  _270
REMARK  112  A    between atoms: _272  and  _274
REMARK  113  A    between atoms: _274  and  _275
REMARK  114  A    between atoms: _274  and  _277
REMARK  115  A    between atoms: _277  and  _278
REMARK  116  A    between atoms: _278  and  _279
REMARK  117  A    between atoms: _279  and  _280
REMARK  118  A    between atoms: _289  and  _291
REMARK  119  A    between atoms: _291  and  _292
REMARK  120  A    between atoms: _291  and  _294
REMARK  121  A    between atoms: _294  and  _295
REMARK  122  A    between atoms: _300  and  _302
REMARK  123  A    between atoms: _302  and  _303
REMARK  124  A    between atoms: _302  and  _305
REMARK  125  A    between atoms: _305  and  _306
REMARK  126  A    between atoms: _306  and  _307
REMARK  127  A    between atoms: _307  and  _308
REMARK  128  A    between atoms: _317  and  _319
REMARK  129  A    between atoms: _319  and  _320
REMARK  130  A    between atoms: _319  and  _322
REMARK  131  A    between atoms: _322  and  _323
REMARK  132  A    between atoms: _326  and  _328
REMARK  133  A    between atoms: _328  and  _329
REMARK  134  A    between atoms: _328  and  _331
REMARK  135  A    between atoms: _331  and  _332
REMARK  136  A    between atoms: _335  and  _337
REMARK  137  A    between atoms: _337  and  _338
REMARK  138  A    between atoms: _337  and  _340
REMARK  139  A    between atoms: _340  and  _341
REMARK  140  A    between atoms: _344  and  _346
REMARK  141  A    between atoms: _346  and  _347
REMARK  142  A    between atoms: _346  and  _349
REMARK  143  A    between atoms: _349  and  _350
REMARK  144  A    between atoms: _353  and  _355
REMARK  145  A    between atoms: _355  and  _356
REMARK  146  A    between atoms: _355  and  _358
REMARK  147  A    between atoms: _358  and  _359
REMARK  148  A    between atoms: _362  and  _364
REMARK  149  A    between atoms: _364  and  _365
REMARK  150  A    between atoms: _367  and  _369
REMARK  151  A    between atoms: _369  and  _370
REMARK  152  A    between atoms: _373  and  _375
REMARK  153  A    between atoms: _375  and  _376
REMARK  154  A    between atoms: _375  and  _378
REMARK  155  A    between atoms: _378  and  _379
REMARK  156  A    between atoms: _382  and  _384
REMARK  157  A    between atoms: _384  and  _385
REMARK  158  A    between atoms: _384  and  _387
REMARK  159  A    between atoms: _387  and  _388
REMARK  160  A    between atoms: _391  and  _393
REMARK  161  A    between atoms: _393  and  _394
REMARK  162  A    between atoms: _393  and  _396
REMARK  163  A    between atoms: _396  and  _397
REMARK  164  A    between atoms: _400  and  _402
REMARK  165  A    between atoms: _402  and  _403
REMARK  166  A    between atoms: _402  and  _405
REMARK  167  A    between atoms: _408  and  _410
REMARK  168  A    between atoms: _410  and  _411
REMARK  169  A    between atoms: _410  and  _413
REMARK  170  A    between atoms: _413  and  _414
REMARK  171  A    between atoms: _414  and  _415
REMARK  172  A    between atoms: _415  and  _416
REMARK  173  A    between atoms: _416  and  _417
REMARK  174  A    between atoms: _421  and  _423
REMARK  175  A    between atoms: _423  and  _424
REMARK  176  A    between atoms: _423  and  _426
REMARK  177  A    between atoms: _426  and  _427
REMARK  178  A    between atoms: _427  and  _428
REMARK  179  A    between atoms: _430  and  _432
REMARK  180  A    between atoms: _432  and  _433
REMARK  181  A    between atoms: _432  and  _435
REMARK  182  A    between atoms: _435  and  _436
REMARK  183  A    between atoms: _439  and  _441
REMARK  184  A    between atoms: _441  and  _442
REMARK  185  A    between atoms: _444  and  _446
REMARK  186  A    between atoms: _446  and  _447
REMARK  187  A    between atoms: _449  and  _451
REMARK  188  A    between atoms: _451  and  _452
REMARK  189  A    between atoms: _451  and  _454
REMARK  190  A    between atoms: _454  and  _455
REMARK  191  A    between atoms: _458  and  _460
REMARK  192  A    between atoms: _460  and  _461
REMARK  193  A    between atoms: _463  and  _465
REMARK  194  A    between atoms: _465  and  _466
REMARK  195  A    between atoms: _468  and  _470
REMARK  196  A    between atoms: _470  and  _471
REMARK  197  A    between atoms: _470  and  _473
REMARK  198  A    between atoms: _473  and  _474
REMARK  199  A    between atoms: _480  and  _482
REMARK  200  A    between atoms: _482  and  _483
REMARK  201  A    between atoms: _482  and  _485
REMARK  202  A    between atoms: _485  and  _486
REMARK  203  A    between atoms: _489  and  _491
REMARK  204  A    between atoms: _491  and  _492
REMARK  205  A    between atoms: _491  and  _494
REMARK  206  A    between atoms: _497  and  _499
REMARK  207  A    between atoms: _499  and  _500
REMARK  208  A    between atoms: _499  and  _502
REMARK  209  A    between atoms: _502  and  _503
REMARK  210  A    between atoms: _506  and  _508
REMARK  211  A    between atoms: _508  and  _509
REMARK  212  A    between atoms: _508  and  _511
REMARK  213  A    between atoms: _511  and  _512
REMARK  214  A    between atoms: _516  and  _517
REMARK  215  A    between atoms: _522  and  _524
REMARK  216  A    between atoms: _524  and  _525
REMARK  217  A    between atoms: _524  and  _527
REMARK  218  A    between atoms: _530  and  _532
REMARK  219  A    between atoms: _532  and  _533
REMARK  220  A    between atoms: _532  and  _535
REMARK  221  A    between atoms: _535  and  _536
REMARK  222  A    between atoms: _541  and  _543
REMARK  223  A    between atoms: _543  and  _544
REMARK  224  A    between atoms: _543  and  _546
REMARK  225  A    between atoms: _546  and  _547
REMARK  226  A    between atoms: _550  and  _552
REMARK  227  A    between atoms: _552  and  _553
REMARK  228  A    between atoms: _552  and  _555
REMARK  229  A    between atoms: _555  and  _556
REMARK  230  A    between atoms: _559  and  _561
REMARK  231  A    between atoms: _561  and  _562
REMARK  232  A    between atoms: _564  and  _566
REMARK  233  A    between atoms: _566  and  _567
REMARK  234  A    between atoms: _566  and  _569
REMARK  235  A    between atoms: _569  and  _570
REMARK  236  A    between atoms: _570  and  _571
REMARK  237  A    between atoms: _571  and  _572
REMARK  238  A    between atoms: _581  and  _583
REMARK  239  A    between atoms: _583  and  _584
REMARK  240  A    between atoms: _583  and  _586
REMARK  241  A    between atoms: _586  and  _587
REMARK                            x       y       z     vdW  Elec       q    Type
REMARK                         _______ _______ _______ _____ _____    ______ ____
ROOT
ATOM      1  O   HOH     1      24.810 -21.912 -11.780  0.00  0.00    +0.000 OA
ENDROOT
TORSDOF 0
REMARK  Name = ../refined-set-2016/2pk6/2pk6_pocket.pdb
REMARK  241 active torsions:
REMARK  status: ('A' for Active; 'I' for Inactive)
REMARK    1  A    between atoms: _1  and  _3
REMARK    2  A    between atoms: _3  and  _4
REMARK    3  A    between atoms: _3  and  _6
REMARK    4  A    between atoms: _6  and  _7
REMARK    5  A    between atoms: _7  and  _8
REMARK    6  A    between atoms: _8  and  _9
REMARK    7  A    between atoms: _18  and  _20
REMARK    8  A    between atoms: _20  and  _21
REMARK    9  A    between atoms: _20  and  _23
REMARK   10  A    between atoms: _23  and  _24
REMARK   11  A    between atoms: _27  and  _29
REMARK   12  A    between atoms: _29  and  _30
REMARK   13  A    between atoms: _29  and  _32
REMARK   14  A    between atoms: _32  and  _33
REMARK   15  A    between atoms: _36  and  _38
REMARK   16  A    between atoms: _38  and  _39
REMARK   17  A    between atoms: _38  and  _41
REMARK   18  A    between atoms: _41  and  _42
REMARK   19  A    between atoms: _45  and  _47
REMARK   20  A    between atoms: _47  and  _48
REMARK   21  A    between atoms: _47  and  _50
REMARK   22  A    between atoms: _50  and  _51
REMARK   23  A    between atoms: _54  and  _56
REMARK   24  A    between atoms: _56  and  _57
REMARK   25  A    between atoms: _59  and  _61
REMARK   26  A    between atoms: _61  and  _62
REMARK   27  A    between atoms: _65  and  _67
REMARK   28  A    between atoms: _67  and  _68
REMARK   29  A    between atoms: _67  and  _70
REMARK   30  A    between atoms: _70  and  _71
REMARK   31  A    between atoms: _74  and  _76
REMARK   32  A    between atoms: _76  and  _77
REMARK   33  A    between atoms: _76  and  _79
REMARK   34  A    between atoms: _79  and  _80
REMARK   35  A    between atoms: _83  and  _85
REMARK   36  A    between atoms: _85  and  _86
REMARK   37  A    between atoms: _85  and  _88
REMARK   38  A    between atoms: _88  and  _89
REMARK   39  A    between atoms: _92  and  _94
REMARK   40  A    between atoms: _94  and  _95
REMARK   41  A    between atoms: _94  and  _97
REMARK   42  A    between atoms: _100  and  _102
REMARK   43  A    between atoms: _102  and  _103
REMARK   44  A    between atoms: _102  and  _105
REMARK   45  A    between atoms: _105  and  _106
REMARK   46  A    between atoms: _109  and  _111
REMARK   47  A    between atoms: _111  and  _112
REMARK   48  A    between atoms: _111  and  _114
REMARK   49  A    between atoms: _114  and  _115
REMARK   50  A    between atoms: _115  and  _116
REMARK   51  A    between atoms: _116  and  _117
REMARK   52  A    between atoms: _117  and  _118
REMARK   53  A    between atoms: _122  and  _124
REMARK   54  A    between atoms: _124  and  _125
REMARK   55  A    between atoms: _124  and  _127
REMARK   56  A    between atoms: _127  and  _128
REMARK   57  A    between atoms: _128  and  _129
REMARK   58  A    between atoms: _131  and  _133
REMARK   59  A    between atoms: _133  and  _134
REMARK   60  A    between atoms: _133  and  _136
REMARK   61  A    between atoms: _136  and  _137
REMARK   62  A    between atoms: _140  and  _142
REMARK   63  A    between atoms: _142  and  _143
REMARK   64  A    between atoms: _145  and  _147
REMARK   65  A    between atoms: _147  and  _148
REMARK   66  A    between atoms: _150  and  _152
REMARK   67  A    between atoms: _152  and  _153
REMARK   68  A    between atoms: _152  and  _155
REMARK   69  A    between atoms: _155  and  _156
REMARK   70  A    between atoms: _159  and  _161
REMARK   71  A    between atoms: _161  and  _162
REMARK   72  A    between atoms: _164  and  _166
REMARK   73  A    between atoms: _166  and  _167
REMARK   74  A    between atoms: _169  and  _171
REMARK   75  A    between atoms: _171  and  _172
REMARK   76  A    between atoms: _171  and  _174
REMARK   77  A    between atoms: _174  and  _175
REMARK   78  A    between atoms: _181  and  _183
REMARK   79  A    between atoms: _183  and  _184
REMARK   80  A    between atoms: _183  and  _186
REMARK   81  A    between atoms: _186  and  _187
REMARK   82  A    between atoms: _190  and  _192
REMARK   83  A    between atoms: _192  and  _193
REMARK   84  A    between atoms: _192  and  _195
REMARK   85  A    between atoms: _198  and  _200
REMARK   86  A    between atoms: _200  and  _201
REMARK   87  A    between atoms: _200  and  _203
REMARK   88  A    between atoms: _203  and  _204
REMARK   89  A    between atoms: _208  and  _209
REMARK   90  A    between atoms: _214  and  _216
REMARK   91  A    between atoms: _216  and  _217
REMARK   92  A    between atoms: _216  and  _219
REMARK   93  A    between atoms: _219  and  _220
REMARK   94  A    between atoms: _224  and  _225
REMARK   95  A    between atoms: _230  and  _232
REMARK   96  A    between atoms: _232  and  _233
REMARK   97  A    between atoms: _232  and  _235
REMARK   98  A    between atoms: _238  and  _240
REMARK   99  A    between atoms: _240  and  _241
REMARK  100  A    between atoms: _240  and  _243
REMARK  101  A    between atoms: _243  and  _244
REMARK  102  A    between atoms: _249  and  _251
REMARK  103  A    between atoms: _251  and  _252
REMARK  104  A    between atoms: _251  and  _254
REMARK  105  A    between atoms: _254  and  _255
REMARK  106  A    between atoms: _258  and  _260
REMARK  107  A    between atoms: _260  and  _261
REMARK  108  A    between atoms: _260  and  _263
REMARK  109  A    between atoms: _263  and  _264
REMARK  110  A    between atoms: _267  and  _269
REMARK  111  A    between atoms: _269  and  _270
REMARK  112  A    between atoms: _272  and  _274
REMARK  113  A    between atoms: _274  and  _275
REMARK  114  A    between atoms: _274  and  _277
REMARK  115  A    between atoms: _277  and  _278
REMARK  116  A    between atoms: _278  and  _279
REMARK  117  A    between atoms: _279  and  _280
REMARK  118  A    between atoms: _289  and  _291
REMARK  119  A    between atoms: _291  and  _292
REMARK  120  A    between atoms: _291  and  _294
REMARK  121  A    between atoms: _294  and  _295
REMARK  122  A    between atoms: _300  and  _302
REMARK  123  A    between atoms: _302  and  _303
REMARK  124  A    between atoms: _302  and  _305
REMARK  125  A    between atoms: _305  and  _306
REMARK  126  A    between atoms: _306  and  _307
REMARK  127  A    between atoms: _307  and  _308
REMARK  128  A    between atoms: _317  and  _319
REMARK  129  A    between atoms: _319  and  _320
REMARK  130  A    between atoms: _319  and  _322
REMARK  131  A    between atoms: _322  and  _323
REMARK  132  A    between atoms: _326  and  _328
REMARK  133  A    between atoms: _328  and  _329
REMARK  134  A    between atoms: _328  and  _331
REMARK  135  A    between atoms: _331  and  _332
REMARK  136  A    between atoms: _335  and  _337
REMARK  137  A    between atoms: _337  and  _338
REMARK  138  A    between atoms: _337  and  _340
REMARK  139  A    between atoms: _340  and  _341
REMARK  140  A    between atoms: _344  and  _346
REMARK  141  A    between atoms: _346  and  _347
REMARK  142  A    between atoms: _346  and  _349
REMARK  143  A    between atoms: _349  and  _350
REMARK  144  A    between atoms: _353  and  _355
REMARK  145  A    between atoms: _355  and  _356
REMARK  146  A    between atoms: _355  and  _358
REMARK  147  A    between atoms: _358  and  _359
REMARK  148  A    between atoms: _362  and  _364
REMARK  149  A    between atoms: _364  and  _365
REMARK  150  A    between atoms: _367  and  _369
REMARK  151  A    between atoms: _369  and  _370
REMARK  152  A    between atoms: _373  and  _375
REMARK  153  A    between atoms: _375  and  _376
REMARK  154  A    between atoms: _375  and  _378
REMARK  155  A    between atoms: _378  and  _379
REMARK  156  A    between atoms: _382  and  _384
REMARK  157  A    between atoms: _384  and  _385
REMARK  158  A    between atoms: _384  and  _387
REMARK  159  A    between atoms: _387  and  _388
REMARK  160  A    between atoms: _391  and  _393
REMARK  161  A    between atoms: _393  and  _394
REMARK  162  A    between atoms: _393  and  _396
REMARK  163  A    between atoms: _396  and  _397
REMARK  164  A    between atoms: _400  and  _402
REMARK  165  A    between atoms: _402  and  _403
REMARK  166  A    between atoms: _402  and  _405
REMARK  167  A    between atoms: _408  and  _410
REMARK  168  A    between atoms: _410  and  _411
REMARK  169  A    between atoms: _410  and  _413
REMARK  170  A    between atoms: _413  and  _414
REMARK  171  A    between atoms: _414  and  _415
REMARK  172  A    between atoms: _415  and  _416
REMARK  173  A    between atoms: _416  and  _417
REMARK  174  A    between atoms: _421  and  _423
REMARK  175  A    between atoms: _423  and  _424
REMARK  176  A    between atoms: _423  and  _426
REMARK  177  A    between atoms: _426  and  _427
REMARK  178  A    between atoms: _427  and  _428
REMARK  179  A    between atoms: _430  and  _432
REMARK  180  A    between atoms: _432  and  _433
REMARK  181  A    between atoms: _432  and  _435
REMARK  182  A    between atoms: _435  and  _436
REMARK  183  A    between atoms: _439  and  _441
REMARK  184  A    between atoms: _441  and  _442
REMARK  185  A    between atoms: _444  and  _446
REMARK  186  A    between atoms: _446  and  _447
REMARK  187  A    between atoms: _449  and  _451
REMARK  188  A    between atoms: _451  and  _452
REMARK  189  A    between atoms: _451  and  _454
REMARK  190  A    between atoms: _454  and  _455
REMARK  191  A    between atoms: _458  and  _460
REMARK  192  A    between atoms: _460  and  _461
REMARK  193  A    between atoms: _463  and  _465
REMARK  194  A    between atoms: _465  and  _466
REMARK  195  A    between atoms: _468  and  _470
REMARK  196  A    between atoms: _470  and  _471
REMARK  197  A    between atoms: _470  and  _473
REMARK  198  A    between atoms: _473  and  _474
REMARK  199  A    between atoms: _480  and  _482
REMARK  200  A    between atoms: _482  and  _483
REMARK  201  A    between atoms: _482  and  _485
REMARK  202  A    between atoms: _485  and  _486
REMARK  203  A    between atoms: _489  and  _491
REMARK  204  A    between atoms: _491  and  _492
REMARK  205  A    between atoms: _491  and  _494
REMARK  206  A    between atoms: _497  and  _499
REMARK  207  A    between atoms: _499  and  _500
REMARK  208  A    between atoms: _499  and  _502
REMARK  209  A    between atoms: _502  and  _503
REMARK  210  A    between atoms: _506  and  _508
REMARK  211  A    between atoms: _508  and  _509
REMARK  212  A    between atoms: _508  and  _511
REMARK  213  A    between atoms: _511  and  _512
REMARK  214  A    between atoms: _516  and  _517
REMARK  215  A    between atoms: _522  and  _524
REMARK  216  A    between atoms: _524  and  _525
REMARK  217  A    between atoms: _524  and  _527
REMARK  218  A    between atoms: _530  and  _532
REMARK  219  A    between atoms: _532  and  _533
REMARK  220  A    between atoms: _532  and  _535
REMARK  221  A    between atoms: _535  and  _536
REMARK  222  A    between atoms: _541  and  _543
REMARK  223  A    between atoms: _543  and  _544
REMARK  224  A    between atoms: _543  and  _546
REMARK  225  A    between atoms: _546  and  _547
REMARK  226  A    between atoms: _550  and  _552
REMARK  227  A    between atoms: _552  and  _553
REMARK  228  A    between atoms: _552  and  _555
REMARK  229  A    between atoms: _555  and  _556
REMARK  230  A    between atoms: _559  and  _561
REMARK  231  A    between atoms: _561  and  _562
REMARK  232  A    between atoms: _564  and  _566
REMARK  233  A    between atoms: _566  and  _567
REMARK  234  A    between atoms: _566  and  _569
REMARK  235  A    between atoms: _569  and  _570
REMARK  236  A    between atoms: _570  and  _571
REMARK  237  A    between atoms: _571  and  _572
REMARK  238  A    between atoms: _581  and  _583
REMARK  239  A    between atoms: _583  and  _584
REMARK  240  A    between atoms: _583  and  _586
REMARK  241  A    between atoms: _586  and  _587
REMARK                            x       y       z     vdW  Elec       q    Type
REMARK                         _______ _______ _______ _____ _____    ______ ____
ROOT
ATOM      1  O   HOH     1       6.862  -8.647 -12.646  0.00  0.00    +0.000 OA
ENDROOT
TORSDOF 0
REMARK  Name = ../refined-set-2016/2pk6/2pk6_pocket.pdb
REMARK  241 active torsions:
REMARK  status: ('A' for Active; 'I' for Inactive)
REMARK    1  A    between atoms: _1  and  _3
REMARK    2  A    between atoms: _3  and  _4
REMARK    3  A    between atoms: _3  and  _6
REMARK    4  A    between atoms: _6  and  _7
REMARK    5  A    between atoms: _7  and  _8
REMARK    6  A    between atoms: _8  and  _9
REMARK    7  A    between atoms: _18  and  _20
REMARK    8  A    between atoms: _20  and  _21
REMARK    9  A    between atoms: _20  and  _23
REMARK   10  A    between atoms: _23  and  _24
REMARK   11  A    between atoms: _27  and  _29
REMARK   12  A    between atoms: _29  and  _30
REMARK   13  A    between atoms: _29  and  _32
REMARK   14  A    between atoms: _32  and  _33
REMARK   15  A    between atoms: _36  and  _38
REMARK   16  A    between atoms: _38  and  _39
REMARK   17  A    between atoms: _38  and  _41
REMARK   18  A    between atoms: _41  and  _42
REMARK   19  A    between atoms: _45  and  _47
REMARK   20  A    between atoms: _47  and  _48
REMARK   21  A    between atoms: _47  and  _50
REMARK   22  A    between atoms: _50  and  _51
REMARK   23  A    between atoms: _54  and  _56
REMARK   24  A    between atoms: _56  and  _57
REMARK   25  A    between atoms: _59  and  _61
REMARK   26  A    between atoms: _61  and  _62
REMARK   27  A    between atoms: _65  and  _67
REMARK   28  A    between atoms: _67  and  _68
REMARK   29  A    between atoms: _67  and  _70
REMARK   30  A    between atoms: _70  and  _71
REMARK   31  A    between atoms: _74  and  _76
REMARK   32  A    between atoms: _76  and  _77
REMARK   33  A    between atoms: _76  and  _79
REMARK   34  A    between atoms: _79  and  _80
REMARK   35  A    between atoms: _83  and  _85
REMARK   36  A    between atoms: _85  and  _86
REMARK   37  A    between atoms: _85  and  _88
REMARK   38  A    between atoms: _88  and  _89
REMARK   39  A    between atoms: _92  and  _94
REMARK   40  A    between atoms: _94  and  _95
REMARK   41  A    between atoms: _94  and  _97
REMARK   42  A    between atoms: _100  and  _102
REMARK   43  A    between atoms: _102  and  _103
REMARK   44  A    between atoms: _102  and  _105
REMARK   45  A    between atoms: _105  and  _106
REMARK   46  A    between atoms: _109  and  _111
REMARK   47  A    between atoms: _111  and  _112
REMARK   48  A    between atoms: _111  and  _114
REMARK   49  A    between atoms: _114  and  _115
REMARK   50  A    between atoms: _115  and  _116
REMARK   51  A    between atoms: _116  and  _117
REMARK   52  A    between atoms: _117  and  _118
REMARK   53  A    between atoms: _122  and  _124
REMARK   54  A    between atoms: _124  and  _125
REMARK   55  A    between atoms: _124  and  _127
REMARK   56  A    between atoms: _127  and  _128
REMARK   57  A    between atoms: _128  and  _129
REMARK   58  A    between atoms: _131  and  _133
REMARK   59  A    between atoms: _133  and  _134
REMARK   60  A    between atoms: _133  and  _136
REMARK   61  A    between atoms: _136  and  _137
REMARK   62  A    between atoms: _140  and  _142
REMARK   63  A    between atoms: _142  and  _143
REMARK   64  A    between atoms: _145  and  _147
REMARK   65  A    between atoms: _147  and  _148
REMARK   66  A    between atoms: _150  and  _152
REMARK   67  A    between atoms: _152  and  _153
REMARK   68  A    between atoms: _152  and  _155
REMARK   69  A    between atoms: _155  and  _156
REMARK   70  A    between atoms: _159  and  _161
REMARK   71  A    between atoms: _161  and  _162
REMARK   72  A    between atoms: _164  and  _166
REMARK   73  A    between atoms: _166  and  _167
REMARK   74  A    between atoms: _169  and  _171
REMARK   75  A    between atoms: _171  and  _172
REMARK   76  A    between atoms: _171  and  _174
REMARK   77  A    between atoms: _174  and  _175
REMARK   78  A    between atoms: _181  and  _183
REMARK   79  A    between atoms: _183  and  _184
REMARK   80  A    between atoms: _183  and  _186
REMARK   81  A    between atoms: _186  and  _187
REMARK   82  A    between atoms: _190  and  _192
REMARK   83  A    between atoms: _192  and  _193
REMARK   84  A    between atoms: _192  and  _195
REMARK   85  A    between atoms: _198  and  _200
REMARK   86  A    between atoms: _200  and  _201
REMARK   87  A    between atoms: _200  and  _203
REMARK   88  A    between atoms: _203  and  _204
REMARK   89  A    between atoms: _208  and  _209
REMARK   90  A    between atoms: _214  and  _216
REMARK   91  A    between atoms: _216  and  _217
REMARK   92  A    between atoms: _216  and  _219
REMARK   93  A    between atoms: _219  and  _220
REMARK   94  A    between atoms: _224  and  _225
REMARK   95  A    between atoms: _230  and  _232
REMARK   96  A    between atoms: _232  and  _233
REMARK   97  A    between atoms: _232  and  _235
REMARK   98  A    between atoms: _238  and  _240
REMARK   99  A    between atoms: _240  and  _241
REMARK  100  A    between atoms: _240  and  _243
REMARK  101  A    between atoms: _243  and  _244
REMARK  102  A    between atoms: _249  and  _251
REMARK  103  A    between atoms: _251  and  _252
REMARK  104  A    between atoms: _251  and  _254
REMARK  105  A    between atoms: _254  and  _255
REMARK  106  A    between atoms: _258  and  _260
REMARK  107  A    between atoms: _260  and  _261
REMARK  108  A    between atoms: _260  and  _263
REMARK  109  A    between atoms: _263  and  _264
REMARK  110  A    between atoms: _267  and  _269
REMARK  111  A    between atoms: _269  and  _270
REMARK  112  A    between atoms: _272  and  _274
REMARK  113  A    between atoms: _274  and  _275
REMARK  114  A    between atoms: _274  and  _277
REMARK  115  A    between atoms: _277  and  _278
REMARK  116  A    between atoms: _278  and  _279
REMARK  117  A    between atoms: _279  and  _280
REMARK  118  A    between atoms: _289  and  _291
REMARK  119  A    between atoms: _291  and  _292
REMARK  120  A    between atoms: _291  and  _294
REMARK  121  A    between atoms: _294  and  _295
REMARK  122  A    between atoms: _300  and  _302
REMARK  123  A    between atoms: _302  and  _303
REMARK  124  A    between atoms: _302  and  _305
REMARK  125  A    between atoms: _305  and  _306
REMARK  126  A    between atoms: _306  and  _307
REMARK  127  A    between atoms: _307  and  _308
REMARK  128  A    between atoms: _317  and  _319
REMARK  129  A    between atoms: _319  and  _320
REMARK  130  A    between atoms: _319  and  _322
REMARK  131  A    between atoms: _322  and  _323
REMARK  132  A    between atoms: _326  and  _328
REMARK  133  A    between atoms: _328  and  _329
REMARK  134  A    between atoms: _328  and  _331
REMARK  135  A    between atoms: _331  and  _332
REMARK  136  A    between atoms: _335  and  _337
REMARK  137  A    between atoms: _337  and  _338
REMARK  138  A    between atoms: _337  and  _340
REMARK  139  A    between atoms: _340  and  _341
REMARK  140  A    between atoms: _344  and  _346
REMARK  141  A    between atoms: _346  and  _347
REMARK  142  A    between atoms: _346  and  _349
REMARK  143  A    between atoms: _349  and  _350
REMARK  144  A    between atoms: _353  and  _355
REMARK  145  A    between atoms: _355  and  _356
REMARK  146  A    between atoms: _355  and  _358
REMARK  147  A    between atoms: _358  and  _359
REMARK  148  A    between atoms: _362  and  _364
REMARK  149  A    between atoms: _364  and  _365
REMARK  150  A    between atoms: _367  and  _369
REMARK  151  A    between atoms: _369  and  _370
REMARK  152  A    between atoms: _373  and  _375
REMARK  153  A    between atoms: _375  and  _376
REMARK  154  A    between atoms: _375  and  _378
REMARK  155  A    between atoms: _378  and  _379
REMARK  156  A    between atoms: _382  and  _384
REMARK  157  A    between atoms: _384  and  _385
REMARK  158  A    between atoms: _384  and  _387
REMARK  159  A    between atoms: _387  and  _388
REMARK  160  A    between atoms: _391  and  _393
REMARK  161  A    between atoms: _393  and  _394
REMARK  162  A    between atoms: _393  and  _396
REMARK  163  A    between atoms: _396  and  _397
REMARK  164  A    between atoms: _400  and  _402
REMARK  165  A    between atoms: _402  and  _403
REMARK  166  A    between atoms: _402  and  _405
REMARK  167  A    between atoms: _408  and  _410
REMARK  168  A    between atoms: _410  and  _411
REMARK  169  A    between atoms: _410  and  _413
REMARK  170  A    between atoms: _413  and  _414
REMARK  171  A    between atoms: _414  and  _415
REMARK  172  A    between atoms: _415  and  _416
REMARK  173  A    between atoms: _416  and  _417
REMARK  174  A    between atoms: _421  and  _423
REMARK  175  A    between atoms: _423  and  _424
REMARK  176  A    between atoms: _423  and  _426
REMARK  177  A    between atoms: _426  and  _427
REMARK  178  A    between atoms: _427  and  _428
REMARK  179  A    between atoms: _430  and  _432
REMARK  180  A    between atoms: _432  and  _433
REMARK  181  A    between atoms: _432  and  _435
REMARK  182  A    between atoms: _435  and  _436
REMARK  183  A    between atoms: _439  and  _441
REMARK  184  A    between atoms: _441  and  _442
REMARK  185  A    between atoms: _444  and  _446
REMARK  186  A    between atoms: _446  and  _447
REMARK  187  A    between atoms: _449  and  _451
REMARK  188  A    between atoms: _451  and  _452
REMARK  189  A    between atoms: _451  and  _454
REMARK  190  A    between atoms: _454  and  _455
REMARK  191  A    between atoms: _458  and  _460
REMARK  192  A    between atoms: _460  and  _461
REMARK  193  A    between atoms: _463  and  _465
REMARK  194  A    between atoms: _465  and  _466
REMARK  195  A    between atoms: _468  and  _470
REMARK  196  A    between atoms: _470  and  _471
REMARK  197  A    between atoms: _470  and  _473
REMARK  198  A    between atoms: _473  and  _474
REMARK  199  A    between atoms: _480  and  _482
REMARK  200  A    between atoms: _482  and  _483
REMARK  201  A    between atoms: _482  and  _485
REMARK  202  A    between atoms: _485  and  _486
REMARK  203  A    between atoms: _489  and  _491
REMARK  204  A    between atoms: _491  and  _492
REMARK  205  A    between atoms: _491  and  _494
REMARK  206  A    between atoms: _497  and  _499
REMARK  207  A    between atoms: _499  and  _500
REMARK  208  A    between atoms: _499  and  _502
REMARK  209  A    between atoms: _502  and  _503
REMARK  210  A    between atoms: _506  and  _508
REMARK  211  A    between atoms: _508  and  _509
REMARK  212  A    between atoms: _508  and  _511
REMARK  213  A    between atoms: _511  and  _512
REMARK  214  A    between atoms: _516  and  _517
REMARK  215  A    between atoms: _522  and  _524
REMARK  216  A    between atoms: _524  and  _525
REMARK  217  A    between atoms: _524  and  _527
REMARK  218  A    between atoms: _530  and  _532
REMARK  219  A    between atoms: _532  and  _533
REMARK  220  A    between atoms: _532  and  _535
REMARK  221  A    between atoms: _535  and  _536
REMARK  222  A    between atoms: _541  and  _543
REMARK  223  A    between atoms: _543  and  _544
REMARK  224  A    between atoms: _543  and  _546
REMARK  225  A    between atoms: _546  and  _547
REMARK  226  A    between atoms: _550  and  _552
REMARK  227  A    between atoms: _552  and  _553
REMARK  228  A    between atoms: _552  and  _555
REMARK  229  A    between atoms: _555  and  _556
REMARK  230  A    between atoms: _559  and  _561
REMARK  231  A    between atoms: _561  and  _562
REMARK  232  A    between atoms: _564  and  _566
REMARK  233  A    between atoms: _566  and  _567
REMARK  234  A    between atoms: _566  and  _569
REMARK  235  A    between atoms: _569  and  _570
REMARK  236  A    between atoms: _570  and  _571
REMARK  237  A    between atoms: _571  and  _572
REMARK  238  A    between atoms: _581  and  _583
REMARK  239  A    between atoms: _583  and  _584
REMARK  240  A    between atoms: _583  and  _586
REMARK  241  A    between atoms: _586  and  _587
REMARK                            x       y       z     vdW  Elec       q    Type
REMARK                         _______ _______ _______ _____ _____    ______ ____
ROOT
ATOM      1  O   HOH     1      22.132 -21.091 -11.755  0.00  0.00    +0.000 OA
ENDROOT
TORSDOF 0
REMARK  Name = ../refined-set-2016/2pk6/2pk6_pocket.pdb
REMARK  241 active torsions:
REMARK  status: ('A' for Active; 'I' for Inactive)
REMARK    1  A    between atoms: _1  and  _3
REMARK    2  A    between atoms: _3  and  _4
REMARK    3  A    between atoms: _3  and  _6
REMARK    4  A    between atoms: _6  and  _7
REMARK    5  A    between atoms: _7  and  _8
REMARK    6  A    between atoms: _8  and  _9
REMARK    7  A    between atoms: _18  and  _20
REMARK    8  A    between atoms: _20  and  _21
REMARK    9  A    between atoms: _20  and  _23
REMARK   10  A    between atoms: _23  and  _24
REMARK   11  A    between atoms: _27  and  _29
REMARK   12  A    between atoms: _29  and  _30
REMARK   13  A    between atoms: _29  and  _32
REMARK   14  A    between atoms: _32  and  _33
REMARK   15  A    between atoms: _36  and  _38
REMARK   16  A    between atoms: _38  and  _39
REMARK   17  A    between atoms: _38  and  _41
REMARK   18  A    between atoms: _41  and  _42
REMARK   19  A    between atoms: _45  and  _47
REMARK   20  A    between atoms: _47  and  _48
REMARK   21  A    between atoms: _47  and  _50
REMARK   22  A    between atoms: _50  and  _51
REMARK   23  A    between atoms: _54  and  _56
REMARK   24  A    between atoms: _56  and  _57
REMARK   25  A    between atoms: _59  and  _61
REMARK   26  A    between atoms: _61  and  _62
REMARK   27  A    between atoms: _65  and  _67
REMARK   28  A    between atoms: _67  and  _68
REMARK   29  A    between atoms: _67  and  _70
REMARK   30  A    between atoms: _70  and  _71
REMARK   31  A    between atoms: _74  and  _76
REMARK   32  A    between atoms: _76  and  _77
REMARK   33  A    between atoms: _76  and  _79
REMARK   34  A    between atoms: _79  and  _80
REMARK   35  A    between atoms: _83  and  _85
REMARK   36  A    between atoms: _85  and  _86
REMARK   37  A    between atoms: _85  and  _88
REMARK   38  A    between atoms: _88  and  _89
REMARK   39  A    between atoms: _92  and  _94
REMARK   40  A    between atoms: _94  and  _95
REMARK   41  A    between atoms: _94  and  _97
REMARK   42  A    between atoms: _100  and  _102
REMARK   43  A    between atoms: _102  and  _103
REMARK   44  A    between atoms: _102  and  _105
REMARK   45  A    between atoms: _105  and  _106
REMARK   46  A    between atoms: _109  and  _111
REMARK   47  A    between atoms: _111  and  _112
REMARK   48  A    between atoms: _111  and  _114
REMARK   49  A    between atoms: _114  and  _115
REMARK   50  A    between atoms: _115  and  _116
REMARK   51  A    between atoms: _116  and  _117
REMARK   52  A    between atoms: _117  and  _118
REMARK   53  A    between atoms: _122  and  _124
REMARK   54  A    between atoms: _124  and  _125
REMARK   55  A    between atoms: _124  and  _127
REMARK   56  A    between atoms: _127  and  _128
REMARK   57  A    between atoms: _128  and  _129
REMARK   58  A    between atoms: _131  and  _133
REMARK   59  A    between atoms: _133  and  _134
REMARK   60  A    between atoms: _133  and  _136
REMARK   61  A    between atoms: _136  and  _137
REMARK   62  A    between atoms: _140  and  _142
REMARK   63  A    between atoms: _142  and  _143
REMARK   64  A    between atoms: _145  and  _147
REMARK   65  A    between atoms: _147  and  _148
REMARK   66  A    between atoms: _150  and  _152
REMARK   67  A    between atoms: _152  and  _153
REMARK   68  A    between atoms: _152  and  _155
REMARK   69  A    between atoms: _155  and  _156
REMARK   70  A    between atoms: _159  and  _161
REMARK   71  A    between atoms: _161  and  _162
REMARK   72  A    between atoms: _164  and  _166
REMARK   73  A    between atoms: _166  and  _167
REMARK   74  A    between atoms: _169  and  _171
REMARK   75  A    between atoms: _171  and  _172
REMARK   76  A    between atoms: _171  and  _174
REMARK   77  A    between atoms: _174  and  _175
REMARK   78  A    between atoms: _181  and  _183
REMARK   79  A    between atoms: _183  and  _184
REMARK   80  A    between atoms: _183  and  _186
REMARK   81  A    between atoms: _186  and  _187
REMARK   82  A    between atoms: _190  and  _192
REMARK   83  A    between atoms: _192  and  _193
REMARK   84  A    between atoms: _192  and  _195
REMARK   85  A    between atoms: _198  and  _200
REMARK   86  A    between atoms: _200  and  _201
REMARK   87  A    between atoms: _200  and  _203
REMARK   88  A    between atoms: _203  and  _204
REMARK   89  A    between atoms: _208  and  _209
REMARK   90  A    between atoms: _214  and  _216
REMARK   91  A    between atoms: _216  and  _217
REMARK   92  A    between atoms: _216  and  _219
REMARK   93  A    between atoms: _219  and  _220
REMARK   94  A    between atoms: _224  and  _225
REMARK   95  A    between atoms: _230  and  _232
REMARK   96  A    between atoms: _232  and  _233
REMARK   97  A    between atoms: _232  and  _235
REMARK   98  A    between atoms: _238  and  _240
REMARK   99  A    between atoms: _240  and  _241
REMARK  100  A    between atoms: _240  and  _243
REMARK  101  A    between atoms: _243  and  _244
REMARK  102  A    between atoms: _249  and  _251
REMARK  103  A    between atoms: _251  and  _252
REMARK  104  A    between atoms: _251  and  _254
REMARK  105  A    between atoms: _254  and  _255
REMARK  106  A    between atoms: _258  and  _260
REMARK  107  A    between atoms: _260  and  _261
REMARK  108  A    between atoms: _260  and  _263
REMARK  109  A    between atoms: _263  and  _264
REMARK  110  A    between atoms: _267  and  _269
REMARK  111  A    between atoms: _269  and  _270
REMARK  112  A    between atoms: _272  and  _274
REMARK  113  A    between atoms: _274  and  _275
REMARK  114  A    between atoms: _274  and  _277
REMARK  115  A    between atoms: _277  and  _278
REMARK  116  A    between atoms: _278  and  _279
REMARK  117  A    between atoms: _279  and  _280
REMARK  118  A    between atoms: _289  and  _291
REMARK  119  A    between atoms: _291  and  _292
REMARK  120  A    between atoms: _291  and  _294
REMARK  121  A    between atoms: _294  and  _295
REMARK  122  A    between atoms: _300  and  _302
REMARK  123  A    between atoms: _302  and  _303
REMARK  124  A    between atoms: _302  and  _305
REMARK  125  A    between atoms: _305  and  _306
REMARK  126  A    between atoms: _306  and  _307
REMARK  127  A    between atoms: _307  and  _308
REMARK  128  A    between atoms: _317  and  _319
REMARK  129  A    between atoms: _319  and  _320
REMARK  130  A    between atoms: _319  and  _322
REMARK  131  A    between atoms: _322  and  _323
REMARK  132  A    between atoms: _326  and  _328
REMARK  133  A    between atoms: _328  and  _329
REMARK  134  A    between atoms: _328  and  _331
REMARK  135  A    between atoms: _331  and  _332
REMARK  136  A    between atoms: _335  and  _337
REMARK  137  A    between atoms: _337  and  _338
REMARK  138  A    between atoms: _337  and  _340
REMARK  139  A    between atoms: _340  and  _341
REMARK  140  A    between atoms: _344  and  _346
REMARK  141  A    between atoms: _346  and  _347
REMARK  142  A    between atoms: _346  and  _349
REMARK  143  A    between atoms: _349  and  _350
REMARK  144  A    between atoms: _353  and  _355
REMARK  145  A    between atoms: _355  and  _356
REMARK  146  A    between atoms: _355  and  _358
REMARK  147  A    between atoms: _358  and  _359
REMARK  148  A    between atoms: _362  and  _364
REMARK  149  A    between atoms: _364  and  _365
REMARK  150  A    between atoms: _367  and  _369
REMARK  151  A    between atoms: _369  and  _370
REMARK  152  A    between atoms: _373  and  _375
REMARK  153  A    between atoms: _375  and  _376
REMARK  154  A    between atoms: _375  and  _378
REMARK  155  A    between atoms: _378  and  _379
REMARK  156  A    between atoms: _382  and  _384
REMARK  157  A    between atoms: _384  and  _385
REMARK  158  A    between atoms: _384  and  _387
REMARK  159  A    between atoms: _387  and  _388
REMARK  160  A    between atoms: _391  and  _393
REMARK  161  A    between atoms: _393  and  _394
REMARK  162  A    between atoms: _393  and  _396
REMARK  163  A    between atoms: _396  and  _397
REMARK  164  A    between atoms: _400  and  _402
REMARK  165  A    between atoms: _402  and  _403
REMARK  166  A    between atoms: _402  and  _405
REMARK  167  A    between atoms: _408  and  _410
REMARK  168  A    between atoms: _410  and  _411
REMARK  169  A    between atoms: _410  and  _413
REMARK  170  A    between atoms: _413  and  _414
REMARK  171  A    between atoms: _414  and  _415
REMARK  172  A    between atoms: _415  and  _416
REMARK  173  A    between atoms: _416  and  _417
REMARK  174  A    between atoms: _421  and  _423
REMARK  175  A    between atoms: _423  and  _424
REMARK  176  A    between atoms: _423  and  _426
REMARK  177  A    between atoms: _426  and  _427
REMARK  178  A    between atoms: _427  and  _428
REMARK  179  A    between atoms: _430  and  _432
REMARK  180  A    between atoms: _432  and  _433
REMARK  181  A    between atoms: _432  and  _435
REMARK  182  A    between atoms: _435  and  _436
REMARK  183  A    between atoms: _439  and  _441
REMARK  184  A    between atoms: _441  and  _442
REMARK  185  A    between atoms: _444  and  _446
REMARK  186  A    between atoms: _446  and  _447
REMARK  187  A    between atoms: _449  and  _451
REMARK  188  A    between atoms: _451  and  _452
REMARK  189  A    between atoms: _451  and  _454
REMARK  190  A    between atoms: _454  and  _455
REMARK  191  A    between atoms: _458  and  _460
REMARK  192  A    between atoms: _460  and  _461
REMARK  193  A    between atoms: _463  and  _465
REMARK  194  A    between atoms: _465  and  _466
REMARK  195  A    between atoms: _468  and  _470
REMARK  196  A    between atoms: _470  and  _471
REMARK  197  A    between atoms: _470  and  _473
REMARK  198  A    between atoms: _473  and  _474
REMARK  199  A    between atoms: _480  and  _482
REMARK  200  A    between atoms: _482  and  _483
REMARK  201  A    between atoms: _482  and  _485
REMARK  202  A    between atoms: _485  and  _486
REMARK  203  A    between atoms: _489  and  _491
REMARK  204  A    between atoms: _491  and  _492
REMARK  205  A    between atoms: _491  and  _494
REMARK  206  A    between atoms: _497  and  _499
REMARK  207  A    between atoms: _499  and  _500
REMARK  208  A    between atoms: _499  and  _502
REMARK  209  A    between atoms: _502  and  _503
REMARK  210  A    between atoms: _506  and  _508
REMARK  211  A    between atoms: _508  and  _509
REMARK  212  A    between atoms: _508  and  _511
REMARK  213  A    between atoms: _511  and  _512
REMARK  214  A    between atoms: _516  and  _517
REMARK  215  A    between atoms: _522  and  _524
REMARK  216  A    between atoms: _524  and  _525
REMARK  217  A    between atoms: _524  and  _527
REMARK  218  A    between atoms: _530  and  _532
REMARK  219  A    between atoms: _532  and  _533
REMARK  220  A    between atoms: _532  and  _535
REMARK  221  A    between atoms: _535  and  _536
REMARK  222  A    between atoms: _541  and  _543
REMARK  223  A    between atoms: _543  and  _544
REMARK  224  A    between atoms: _543  and  _546
REMARK  225  A    between atoms: _546  and  _547
REMARK  226  A    between atoms: _550  and  _552
REMARK  227  A    between atoms: _552  and  _553
REMARK  228  A    between atoms: _552  and  _555
REMARK  229  A    between atoms: _555  and  _556
REMARK  230  A    between atoms: _559  and  _561
REMARK  231  A    between atoms: _561  and  _562
REMARK  232  A    between atoms: _564  and  _566
REMARK  233  A    between atoms: _566  and  _567
REMARK  234  A    between atoms: _566  and  _569
REMARK  235  A    between atoms: _569  and  _570
REMARK  236  A    between atoms: _570  and  _571
REMARK  237  A    between atoms: _571  and  _572
REMARK  238  A    between atoms: _581  and  _583
REMARK  239  A    between atoms: _583  and  _584
REMARK  240  A    between atoms: _583  and  _586
REMARK  241  A    between atoms: _586  and  _587
REMARK                            x       y       z     vdW  Elec       q    Type
REMARK                         _______ _______ _______ _____ _____    ______ ____
ROOT
ATOM      1  O   HOH     1       3.837  -9.418 -11.287  0.00  0.00    +0.000 OA
ENDROOT
TORSDOF 0
REMARK  Name = ../refined-set-2016/2pk6/2pk6_pocket.pdb
REMARK  241 active torsions:
REMARK  status: ('A' for Active; 'I' for Inactive)
REMARK    1  A    between atoms: _1  and  _3
REMARK    2  A    between atoms: _3  and  _4
REMARK    3  A    between atoms: _3  and  _6
REMARK    4  A    between atoms: _6  and  _7
REMARK    5  A    between atoms: _7  and  _8
REMARK    6  A    between atoms: _8  and  _9
REMARK    7  A    between atoms: _18  and  _20
REMARK    8  A    between atoms: _20  and  _21
REMARK    9  A    between atoms: _20  and  _23
REMARK   10  A    between atoms: _23  and  _24
REMARK   11  A    between atoms: _27  and  _29
REMARK   12  A    between atoms: _29  and  _30
REMARK   13  A    between atoms: _29  and  _32
REMARK   14  A    between atoms: _32  and  _33
REMARK   15  A    between atoms: _36  and  _38
REMARK   16  A    between atoms: _38  and  _39
REMARK   17  A    between atoms: _38  and  _41
REMARK   18  A    between atoms: _41  and  _42
REMARK   19  A    between atoms: _45  and  _47
REMARK   20  A    between atoms: _47  and  _48
REMARK   21  A    between atoms: _47  and  _50
REMARK   22  A    between atoms: _50  and  _51
REMARK   23  A    between atoms: _54  and  _56
REMARK   24  A    between atoms: _56  and  _57
REMARK   25  A    between atoms: _59  and  _61
REMARK   26  A    between atoms: _61  and  _62
REMARK   27  A    between atoms: _65  and  _67
REMARK   28  A    between atoms: _67  and  _68
REMARK   29  A    between atoms: _67  and  _70
REMARK   30  A    between atoms: _70  and  _71
REMARK   31  A    between atoms: _74  and  _76
REMARK   32  A    between atoms: _76  and  _77
REMARK   33  A    between atoms: _76  and  _79
REMARK   34  A    between atoms: _79  and  _80
REMARK   35  A    between atoms: _83  and  _85
REMARK   36  A    between atoms: _85  and  _86
REMARK   37  A    between atoms: _85  and  _88
REMARK   38  A    between atoms: _88  and  _89
REMARK   39  A    between atoms: _92  and  _94
REMARK   40  A    between atoms: _94  and  _95
REMARK   41  A    between atoms: _94  and  _97
REMARK   42  A    between atoms: _100  and  _102
REMARK   43  A    between atoms: _102  and  _103
REMARK   44  A    between atoms: _102  and  _105
REMARK   45  A    between atoms: _105  and  _106
REMARK   46  A    between atoms: _109  and  _111
REMARK   47  A    between atoms: _111  and  _112
REMARK   48  A    between atoms: _111  and  _114
REMARK   49  A    between atoms: _114  and  _115
REMARK   50  A    between atoms: _115  and  _116
REMARK   51  A    between atoms: _116  and  _117
REMARK   52  A    between atoms: _117  and  _118
REMARK   53  A    between atoms: _122  and  _124
REMARK   54  A    between atoms: _124  and  _125
REMARK   55  A    between atoms: _124  and  _127
REMARK   56  A    between atoms: _127  and  _128
REMARK   57  A    between atoms: _128  and  _129
REMARK   58  A    between atoms: _131  and  _133
REMARK   59  A    between atoms: _133  and  _134
REMARK   60  A    between atoms: _133  and  _136
REMARK   61  A    between atoms: _136  and  _137
REMARK   62  A    between atoms: _140  and  _142
REMARK   63  A    between atoms: _142  and  _143
REMARK   64  A    between atoms: _145  and  _147
REMARK   65  A    between atoms: _147  and  _148
REMARK   66  A    between atoms: _150  and  _152
REMARK   67  A    between atoms: _152  and  _153
REMARK   68  A    between atoms: _152  and  _155
REMARK   69  A    between atoms: _155  and  _156
REMARK   70  A    between atoms: _159  and  _161
REMARK   71  A    between atoms: _161  and  _162
REMARK   72  A    between atoms: _164  and  _166
REMARK   73  A    between atoms: _166  and  _167
REMARK   74  A    between atoms: _169  and  _171
REMARK   75  A    between atoms: _171  and  _172
REMARK   76  A    between atoms: _171  and  _174
REMARK   77  A    between atoms: _174  and  _175
REMARK   78  A    between atoms: _181  and  _183
REMARK   79  A    between atoms: _183  and  _184
REMARK   80  A    between atoms: _183  and  _186
REMARK   81  A    between atoms: _186  and  _187
REMARK   82  A    between atoms: _190  and  _192
REMARK   83  A    between atoms: _192  and  _193
REMARK   84  A    between atoms: _192  and  _195
REMARK   85  A    between atoms: _198  and  _200
REMARK   86  A    between atoms: _200  and  _201
REMARK   87  A    between atoms: _200  and  _203
REMARK   88  A    between atoms: _203  and  _204
REMARK   89  A    between atoms: _208  and  _209
REMARK   90  A    between atoms: _214  and  _216
REMARK   91  A    between atoms: _216  and  _217
REMARK   92  A    between atoms: _216  and  _219
REMARK   93  A    between atoms: _219  and  _220
REMARK   94  A    between atoms: _224  and  _225
REMARK   95  A    between atoms: _230  and  _232
REMARK   96  A    between atoms: _232  and  _233
REMARK   97  A    between atoms: _232  and  _235
REMARK   98  A    between atoms: _238  and  _240
REMARK   99  A    between atoms: _240  and  _241
REMARK  100  A    between atoms: _240  and  _243
REMARK  101  A    between atoms: _243  and  _244
REMARK  102  A    between atoms: _249  and  _251
REMARK  103  A    between atoms: _251  and  _252
REMARK  104  A    between atoms: _251  and  _254
REMARK  105  A    between atoms: _254  and  _255
REMARK  106  A    between atoms: _258  and  _260
REMARK  107  A    between atoms: _260  and  _261
REMARK  108  A    between atoms: _260  and  _263
REMARK  109  A    between atoms: _263  and  _264
REMARK  110  A    between atoms: _267  and  _269
REMARK  111  A    between atoms: _269  and  _270
REMARK  112  A    between atoms: _272  and  _274
REMARK  113  A    between atoms: _274  and  _275
REMARK  114  A    between atoms: _274  and  _277
REMARK  115  A    between atoms: _277  and  _278
REMARK  116  A    between atoms: _278  and  _279
REMARK  117  A    between atoms: _279  and  _280
REMARK  118  A    between atoms: _289  and  _291
REMARK  119  A    between atoms: _291  and  _292
REMARK  120  A    between atoms: _291  and  _294
REMARK  121  A    between atoms: _294  and  _295
REMARK  122  A    between atoms: _300  and  _302
REMARK  123  A    between atoms: _302  and  _303
REMARK  124  A    between atoms: _302  and  _305
REMARK  125  A    between atoms: _305  and  _306
REMARK  126  A    between atoms: _306  and  _307
REMARK  127  A    between atoms: _307  and  _308
REMARK  128  A    between atoms: _317  and  _319
REMARK  129  A    between atoms: _319  and  _320
REMARK  130  A    between atoms: _319  and  _322
REMARK  131  A    between atoms: _322  and  _323
REMARK  132  A    between atoms: _326  and  _328
REMARK  133  A    between atoms: _328  and  _329
REMARK  134  A    between atoms: _328  and  _331
REMARK  135  A    between atoms: _331  and  _332
REMARK  136  A    between atoms: _335  and  _337
REMARK  137  A    between atoms: _337  and  _338
REMARK  138  A    between atoms: _337  and  _340
REMARK  139  A    between atoms: _340  and  _341
REMARK  140  A    between atoms: _344  and  _346
REMARK  141  A    between atoms: _346  and  _347
REMARK  142  A    between atoms: _346  and  _349
REMARK  143  A    between atoms: _349  and  _350
REMARK  144  A    between atoms: _353  and  _355
REMARK  145  A    between atoms: _355  and  _356
REMARK  146  A    between atoms: _355  and  _358
REMARK  147  A    between atoms: _358  and  _359
REMARK  148  A    between atoms: _362  and  _364
REMARK  149  A    between atoms: _364  and  _365
REMARK  150  A    between atoms: _367  and  _369
REMARK  151  A    between atoms: _369  and  _370
REMARK  152  A    between atoms: _373  and  _375
REMARK  153  A    between atoms: _375  and  _376
REMARK  154  A    between atoms: _375  and  _378
REMARK  155  A    between atoms: _378  and  _379
REMARK  156  A    between atoms: _382  and  _384
REMARK  157  A    between atoms: _384  and  _385
REMARK  158  A    between atoms: _384  and  _387
REMARK  159  A    between atoms: _387  and  _388
REMARK  160  A    between atoms: _391  and  _393
REMARK  161  A    between atoms: _393  and  _394
REMARK  162  A    between atoms: _393  and  _396
REMARK  163  A    between atoms: _396  and  _397
REMARK  164  A    between atoms: _400  and  _402
REMARK  165  A    between atoms: _402  and  _403
REMARK  166  A    between atoms: _402  and  _405
REMARK  167  A    between atoms: _408  and  _410
REMARK  168  A    between atoms: _410  and  _411
REMARK  169  A    between atoms: _410  and  _413
REMARK  170  A    between atoms: _413  and  _414
REMARK  171  A    between atoms: _414  and  _415
REMARK  172  A    between atoms: _415  and  _416
REMARK  173  A    between atoms: _416  and  _417
REMARK  174  A    between atoms: _421  and  _423
REMARK  175  A    between atoms: _423  and  _424
REMARK  176  A    between atoms: _423  and  _426
REMARK  177  A    between atoms: _426  and  _427
REMARK  178  A    between atoms: _427  and  _428
REMARK  179  A    between atoms: _430  and  _432
REMARK  180  A    between atoms: _432  and  _433
REMARK  181  A    between atoms: _432  and  _435
REMARK  182  A    between atoms: _435  and  _436
REMARK  183  A    between atoms: _439  and  _441
REMARK  184  A    between atoms: _441  and  _442
REMARK  185  A    between atoms: _444  and  _446
REMARK  186  A    between atoms: _446  and  _447
REMARK  187  A    between atoms: _449  and  _451
REMARK  188  A    between atoms: _451  and  _452
REMARK  189  A    between atoms: _451  and  _454
REMARK  190  A    between atoms: _454  and  _455
REMARK  191  A    between atoms: _458  and  _460
REMARK  192  A    between atoms: _460  and  _461
REMARK  193  A    between atoms: _463  and  _465
REMARK  194  A    between atoms: _465  and  _466
REMARK  195  A    between atoms: _468  and  _470
REMARK  196  A    between atoms: _470  and  _471
REMARK  197  A    between atoms: _470  and  _473
REMARK  198  A    between atoms: _473  and  _474
REMARK  199  A    between atoms: _480  and  _482
REMARK  200  A    between atoms: _482  and  _483
REMARK  201  A    between atoms: _482  and  _485
REMARK  202  A    between atoms: _485  and  _486
REMARK  203  A    between atoms: _489  and  _491
REMARK  204  A    between atoms: _491  and  _492
REMARK  205  A    between atoms: _491  and  _494
REMARK  206  A    between atoms: _497  and  _499
REMARK  207  A    between atoms: _499  and  _500
REMARK  208  A    between atoms: _499  and  _502
REMARK  209  A    between atoms: _502  and  _503
REMARK  210  A    between atoms: _506  and  _508
REMARK  211  A    between atoms: _508  and  _509
REMARK  212  A    between atoms: _508  and  _511
REMARK  213  A    between atoms: _511  and  _512
REMARK  214  A    between atoms: _516  and  _517
REMARK  215  A    between atoms: _522  and  _524
REMARK  216  A    between atoms: _524  and  _525
REMARK  217  A    between atoms: _524  and  _527
REMARK  218  A    between atoms: _530  and  _532
REMARK  219  A    between atoms: _532  and  _533
REMARK  220  A    between atoms: _532  and  _535
REMARK  221  A    between atoms: _535  and  _536
REMARK  222  A    between atoms: _541  and  _543
REMARK  223  A    between atoms: _543  and  _544
REMARK  224  A    between atoms: _543  and  _546
REMARK  225  A    between atoms: _546  and  _547
REMARK  226  A    between atoms: _550  and  _552
REMARK  227  A    between atoms: _552  and  _553
REMARK  228  A    between atoms: _552  and  _555
REMARK  229  A    between atoms: _555  and  _556
REMARK  230  A    between atoms: _559  and  _561
REMARK  231  A    between atoms: _561  and  _562
REMARK  232  A    between atoms: _564  and  _566
REMARK  233  A    between atoms: _566  and  _567
REMARK  234  A    between atoms: _566  and  _569
REMARK  235  A    between atoms: _569  and  _570
REMARK  236  A    between atoms: _570  and  _571
REMARK  237  A    between atoms: _571  and  _572
REMARK  238  A    between atoms: _581  and  _583
REMARK  239  A    between atoms: _583  and  _584
REMARK  240  A    between atoms: _583  and  _586
REMARK  241  A    between atoms: _586  and  _587
REMARK                            x       y       z     vdW  Elec       q    Type
REMARK                         _______ _______ _______ _____ _____    ______ ____
ROOT
ATOM      1  O   HOH     1       4.603  -9.527 -16.002  0.00  0.00    +0.000 OA
ENDROOT
TORSDOF 0
REMARK  Name = ../refined-set-2016/2pk6/2pk6_pocket.pdb
REMARK  241 active torsions:
REMARK  status: ('A' for Active; 'I' for Inactive)
REMARK    1  A    between atoms: _1  and  _3
REMARK    2  A    between atoms: _3  and  _4
REMARK    3  A    between atoms: _3  and  _6
REMARK    4  A    between atoms: _6  and  _7
REMARK    5  A    between atoms: _7  and  _8
REMARK    6  A    between atoms: _8  and  _9
REMARK    7  A    between atoms: _18  and  _20
REMARK    8  A    between atoms: _20  and  _21
REMARK    9  A    between atoms: _20  and  _23
REMARK   10  A    between atoms: _23  and  _24
REMARK   11  A    between atoms: _27  and  _29
REMARK   12  A    between atoms: _29  and  _30
REMARK   13  A    between atoms: _29  and  _32
REMARK   14  A    between atoms: _32  and  _33
REMARK   15  A    between atoms: _36  and  _38
REMARK   16  A    between atoms: _38  and  _39
REMARK   17  A    between atoms: _38  and  _41
REMARK   18  A    between atoms: _41  and  _42
REMARK   19  A    between atoms: _45  and  _47
REMARK   20  A    between atoms: _47  and  _48
REMARK   21  A    between atoms: _47  and  _50
REMARK   22  A    between atoms: _50  and  _51
REMARK   23  A    between atoms: _54  and  _56
REMARK   24  A    between atoms: _56  and  _57
REMARK   25  A    between atoms: _59  and  _61
REMARK   26  A    between atoms: _61  and  _62
REMARK   27  A    between atoms: _65  and  _67
REMARK   28  A    between atoms: _67  and  _68
REMARK   29  A    between atoms: _67  and  _70
REMARK   30  A    between atoms: _70  and  _71
REMARK   31  A    between atoms: _74  and  _76
REMARK   32  A    between atoms: _76  and  _77
REMARK   33  A    between atoms: _76  and  _79
REMARK   34  A    between atoms: _79  and  _80
REMARK   35  A    between atoms: _83  and  _85
REMARK   36  A    between atoms: _85  and  _86
REMARK   37  A    between atoms: _85  and  _88
REMARK   38  A    between atoms: _88  and  _89
REMARK   39  A    between atoms: _92  and  _94
REMARK   40  A    between atoms: _94  and  _95
REMARK   41  A    between atoms: _94  and  _97
REMARK   42  A    between atoms: _100  and  _102
REMARK   43  A    between atoms: _102  and  _103
REMARK   44  A    between atoms: _102  and  _105
REMARK   45  A    between atoms: _105  and  _106
REMARK   46  A    between atoms: _109  and  _111
REMARK   47  A    between atoms: _111  and  _112
REMARK   48  A    between atoms: _111  and  _114
REMARK   49  A    between atoms: _114  and  _115
REMARK   50  A    between atoms: _115  and  _116
REMARK   51  A    between atoms: _116  and  _117
REMARK   52  A    between atoms: _117  and  _118
REMARK   53  A    between atoms: _122  and  _124
REMARK   54  A    between atoms: _124  and  _125
REMARK   55  A    between atoms: _124  and  _127
REMARK   56  A    between atoms: _127  and  _128
REMARK   57  A    between atoms: _128  and  _129
REMARK   58  A    between atoms: _131  and  _133
REMARK   59  A    between atoms: _133  and  _134
REMARK   60  A    between atoms: _133  and  _136
REMARK   61  A    between atoms: _136  and  _137
REMARK   62  A    between atoms: _140  and  _142
REMARK   63  A    between atoms: _142  and  _143
REMARK   64  A    between atoms: _145  and  _147
REMARK   65  A    between atoms: _147  and  _148
REMARK   66  A    between atoms: _150  and  _152
REMARK   67  A    between atoms: _152  and  _153
REMARK   68  A    between atoms: _152  and  _155
REMARK   69  A    between atoms: _155  and  _156
REMARK   70  A    between atoms: _159  and  _161
REMARK   71  A    between atoms: _161  and  _162
REMARK   72  A    between atoms: _164  and  _166
REMARK   73  A    between atoms: _166  and  _167
REMARK   74  A    between atoms: _169  and  _171
REMARK   75  A    between atoms: _171  and  _172
REMARK   76  A    between atoms: _171  and  _174
REMARK   77  A    between atoms: _174  and  _175
REMARK   78  A    between atoms: _181  and  _183
REMARK   79  A    between atoms: _183  and  _184
REMARK   80  A    between atoms: _183  and  _186
REMARK   81  A    between atoms: _186  and  _187
REMARK   82  A    between atoms: _190  and  _192
REMARK   83  A    between atoms: _192  and  _193
REMARK   84  A    between atoms: _192  and  _195
REMARK   85  A    between atoms: _198  and  _200
REMARK   86  A    between atoms: _200  and  _201
REMARK   87  A    between atoms: _200  and  _203
REMARK   88  A    between atoms: _203  and  _204
REMARK   89  A    between atoms: _208  and  _209
REMARK   90  A    between atoms: _214  and  _216
REMARK   91  A    between atoms: _216  and  _217
REMARK   92  A    between atoms: _216  and  _219
REMARK   93  A    between atoms: _219  and  _220
REMARK   94  A    between atoms: _224  and  _225
REMARK   95  A    between atoms: _230  and  _232
REMARK   96  A    between atoms: _232  and  _233
REMARK   97  A    between atoms: _232  and  _235
REMARK   98  A    between atoms: _238  and  _240
REMARK   99  A    between atoms: _240  and  _241
REMARK  100  A    between atoms: _240  and  _243
REMARK  101  A    between atoms: _243  and  _244
REMARK  102  A    between atoms: _249  and  _251
REMARK  103  A    between atoms: _251  and  _252
REMARK  104  A    between atoms: _251  and  _254
REMARK  105  A    between atoms: _254  and  _255
REMARK  106  A    between atoms: _258  and  _260
REMARK  107  A    between atoms: _260  and  _261
REMARK  108  A    between atoms: _260  and  _263
REMARK  109  A    between atoms: _263  and  _264
REMARK  110  A    between atoms: _267  and  _269
REMARK  111  A    between atoms: _269  and  _270
REMARK  112  A    between atoms: _272  and  _274
REMARK  113  A    between atoms: _274  and  _275
REMARK  114  A    between atoms: _274  and  _277
REMARK  115  A    between atoms: _277  and  _278
REMARK  116  A    between atoms: _278  and  _279
REMARK  117  A    between atoms: _279  and  _280
REMARK  118  A    between atoms: _289  and  _291
REMARK  119  A    between atoms: _291  and  _292
REMARK  120  A    between atoms: _291  and  _294
REMARK  121  A    between atoms: _294  and  _295
REMARK  122  A    between atoms: _300  and  _302
REMARK  123  A    between atoms: _302  and  _303
REMARK  124  A    between atoms: _302  and  _305
REMARK  125  A    between atoms: _305  and  _306
REMARK  126  A    between atoms: _306  and  _307
REMARK  127  A    between atoms: _307  and  _308
REMARK  128  A    between atoms: _317  and  _319
REMARK  129  A    between atoms: _319  and  _320
REMARK  130  A    between atoms: _319  and  _322
REMARK  131  A    between atoms: _322  and  _323
REMARK  132  A    between atoms: _326  and  _328
REMARK  133  A    between atoms: _328  and  _329
REMARK  134  A    between atoms: _328  and  _331
REMARK  135  A    between atoms: _331  and  _332
REMARK  136  A    between atoms: _335  and  _337
REMARK  137  A    between atoms: _337  and  _338
REMARK  138  A    between atoms: _337  and  _340
REMARK  139  A    between atoms: _340  and  _341
REMARK  140  A    between atoms: _344  and  _346
REMARK  141  A    between atoms: _346  and  _347
REMARK  142  A    between atoms: _346  and  _349
REMARK  143  A    between atoms: _349  and  _350
REMARK  144  A    between atoms: _353  and  _355
REMARK  145  A    between atoms: _355  and  _356
REMARK  146  A    between atoms: _355  and  _358
REMARK  147  A    between atoms: _358  and  _359
REMARK  148  A    between atoms: _362  and  _364
REMARK  149  A    between atoms: _364  and  _365
REMARK  150  A    between atoms: _367  and  _369
REMARK  151  A    between atoms: _369  and  _370
REMARK  152  A    between atoms: _373  and  _375
REMARK  153  A    between atoms: _375  and  _376
REMARK  154  A    between atoms: _375  and  _378
REMARK  155  A    between atoms: _378  and  _379
REMARK  156  A    between atoms: _382  and  _384
REMARK  157  A    between atoms: _384  and  _385
REMARK  158  A    between atoms: _384  and  _387
REMARK  159  A    between atoms: _387  and  _388
REMARK  160  A    between atoms: _391  and  _393
REMARK  161  A    between atoms: _393  and  _394
REMARK  162  A    between atoms: _393  and  _396
REMARK  163  A    between atoms: _396  and  _397
REMARK  164  A    between atoms: _400  and  _402
REMARK  165  A    between atoms: _402  and  _403
REMARK  166  A    between atoms: _402  and  _405
REMARK  167  A    between atoms: _408  and  _410
REMARK  168  A    between atoms: _410  and  _411
REMARK  169  A    between atoms: _410  and  _413
REMARK  170  A    between atoms: _413  and  _414
REMARK  171  A    between atoms: _414  and  _415
REMARK  172  A    between atoms: _415  and  _416
REMARK  173  A    between atoms: _416  and  _417
REMARK  174  A    between atoms: _421  and  _423
REMARK  175  A    between atoms: _423  and  _424
REMARK  176  A    between atoms: _423  and  _426
REMARK  177  A    between atoms: _426  and  _427
REMARK  178  A    between atoms: _427  and  _428
REMARK  179  A    between atoms: _430  and  _432
REMARK  180  A    between atoms: _432  and  _433
REMARK  181  A    between atoms: _432  and  _435
REMARK  182  A    between atoms: _435  and  _436
REMARK  183  A    between atoms: _439  and  _441
REMARK  184  A    between atoms: _441  and  _442
REMARK  185  A    between atoms: _444  and  _446
REMARK  186  A    between atoms: _446  and  _447
REMARK  187  A    between atoms: _449  and  _451
REMARK  188  A    between atoms: _451  and  _452
REMARK  189  A    between atoms: _451  and  _454
REMARK  190  A    between atoms: _454  and  _455
REMARK  191  A    between atoms: _458  and  _460
REMARK  192  A    between atoms: _460  and  _461
REMARK  193  A    between atoms: _463  and  _465
REMARK  194  A    between atoms: _465  and  _466
REMARK  195  A    between atoms: _468  and  _470
REMARK  196  A    between atoms: _470  and  _471
REMARK  197  A    between atoms: _470  and  _473
REMARK  198  A    between atoms: _473  and  _474
REMARK  199  A    between atoms: _480  and  _482
REMARK  200  A    between atoms: _482  and  _483
REMARK  201  A    between atoms: _482  and  _485
REMARK  202  A    between atoms: _485  and  _486
REMARK  203  A    between atoms: _489  and  _491
REMARK  204  A    between atoms: _491  and  _492
REMARK  205  A    between atoms: _491  and  _494
REMARK  206  A    between atoms: _497  and  _499
REMARK  207  A    between atoms: _499  and  _500
REMARK  208  A    between atoms: _499  and  _502
REMARK  209  A    between atoms: _502  and  _503
REMARK  210  A    between atoms: _506  and  _508
REMARK  211  A    between atoms: _508  and  _509
REMARK  212  A    between atoms: _508  and  _511
REMARK  213  A    between atoms: _511  and  _512
REMARK  214  A    between atoms: _516  and  _517
REMARK  215  A    between atoms: _522  and  _524
REMARK  216  A    between atoms: _524  and  _525
REMARK  217  A    between atoms: _524  and  _527
REMARK  218  A    between atoms: _530  and  _532
REMARK  219  A    between atoms: _532  and  _533
REMARK  220  A    between atoms: _532  and  _535
REMARK  221  A    between atoms: _535  and  _536
REMARK  222  A    between atoms: _541  and  _543
REMARK  223  A    between atoms: _543  and  _544
REMARK  224  A    between atoms: _543  and  _546
REMARK  225  A    between atoms: _546  and  _547
REMARK  226  A    between atoms: _550  and  _552
REMARK  227  A    between atoms: _552  and  _553
REMARK  228  A    between atoms: _552  and  _555
REMARK  229  A    between atoms: _555  and  _556
REMARK  230  A    between atoms: _559  and  _561
REMARK  231  A    between atoms: _561  and  _562
REMARK  232  A    between atoms: _564  and  _566
REMARK  233  A    between atoms: _566  and  _567
REMARK  234  A    between atoms: _566  and  _569
REMARK  235  A    between atoms: _569  and  _570
REMARK  236  A    between atoms: _570  and  _571
REMARK  237  A    between atoms: _571  and  _572
REMARK  238  A    between atoms: _581  and  _583
REMARK  239  A    between atoms: _583  and  _584
REMARK  240  A    between atoms: _583  and  _586
REMARK  241  A    between atoms: _586  and  _587
REMARK                            x       y       z     vdW  Elec       q    Type
REMARK                         _______ _______ _______ _____ _____    ______ ____
ROOT
ATOM      1  O   HOH     1      21.958 -20.105  -8.921  0.00  0.00    +0.000 OA
ENDROOT
TORSDOF 0
REMARK  Name = ../refined-set-2016/2pk6/2pk6_pocket.pdb
REMARK  241 active torsions:
REMARK  status: ('A' for Active; 'I' for Inactive)
REMARK    1  A    between atoms: _1  and  _3
REMARK    2  A    between atoms: _3  and  _4
REMARK    3  A    between atoms: _3  and  _6
REMARK    4  A    between atoms: _6  and  _7
REMARK    5  A    between atoms: _7  and  _8
REMARK    6  A    between atoms: _8  and  _9
REMARK    7  A    between atoms: _18  and  _20
REMARK    8  A    between atoms: _20  and  _21
REMARK    9  A    between atoms: _20  and  _23
REMARK   10  A    between atoms: _23  and  _24
REMARK   11  A    between atoms: _27  and  _29
REMARK   12  A    between atoms: _29  and  _30
REMARK   13  A    between atoms: _29  and  _32
REMARK   14  A    between atoms: _32  and  _33
REMARK   15  A    between atoms: _36  and  _38
REMARK   16  A    between atoms: _38  and  _39
REMARK   17  A    between atoms: _38  and  _41
REMARK   18  A    between atoms: _41  and  _42
REMARK   19  A    between atoms: _45  and  _47
REMARK   20  A    between atoms: _47  and  _48
REMARK   21  A    between atoms: _47  and  _50
REMARK   22  A    between atoms: _50  and  _51
REMARK   23  A    between atoms: _54  and  _56
REMARK   24  A    between atoms: _56  and  _57
REMARK   25  A    between atoms: _59  and  _61
REMARK   26  A    between atoms: _61  and  _62
REMARK   27  A    between atoms: _65  and  _67
REMARK   28  A    between atoms: _67  and  _68
REMARK   29  A    between atoms: _67  and  _70
REMARK   30  A    between atoms: _70  and  _71
REMARK   31  A    between atoms: _74  and  _76
REMARK   32  A    between atoms: _76  and  _77
REMARK   33  A    between atoms: _76  and  _79
REMARK   34  A    between atoms: _79  and  _80
REMARK   35  A    between atoms: _83  and  _85
REMARK   36  A    between atoms: _85  and  _86
REMARK   37  A    between atoms: _85  and  _88
REMARK   38  A    between atoms: _88  and  _89
REMARK   39  A    between atoms: _92  and  _94
REMARK   40  A    between atoms: _94  and  _95
REMARK   41  A    between atoms: _94  and  _97
REMARK   42  A    between atoms: _100  and  _102
REMARK   43  A    between atoms: _102  and  _103
REMARK   44  A    between atoms: _102  and  _105
REMARK   45  A    between atoms: _105  and  _106
REMARK   46  A    between atoms: _109  and  _111
REMARK   47  A    between atoms: _111  and  _112
REMARK   48  A    between atoms: _111  and  _114
REMARK   49  A    between atoms: _114  and  _115
REMARK   50  A    between atoms: _115  and  _116
REMARK   51  A    between atoms: _116  and  _117
REMARK   52  A    between atoms: _117  and  _118
REMARK   53  A    between atoms: _122  and  _124
REMARK   54  A    between atoms: _124  and  _125
REMARK   55  A    between atoms: _124  and  _127
REMARK   56  A    between atoms: _127  and  _128
REMARK   57  A    between atoms: _128  and  _129
REMARK   58  A    between atoms: _131  and  _133
REMARK   59  A    between atoms: _133  and  _134
REMARK   60  A    between atoms: _133  and  _136
REMARK   61  A    between atoms: _136  and  _137
REMARK   62  A    between atoms: _140  and  _142
REMARK   63  A    between atoms: _142  and  _143
REMARK   64  A    between atoms: _145  and  _147
REMARK   65  A    between atoms: _147  and  _148
REMARK   66  A    between atoms: _150  and  _152
REMARK   67  A    between atoms: _152  and  _153
REMARK   68  A    between atoms: _152  and  _155
REMARK   69  A    between atoms: _155  and  _156
REMARK   70  A    between atoms: _159  and  _161
REMARK   71  A    between atoms: _161  and  _162
REMARK   72  A    between atoms: _164  and  _166
REMARK   73  A    between atoms: _166  and  _167
REMARK   74  A    between atoms: _169  and  _171
REMARK   75  A    between atoms: _171  and  _172
REMARK   76  A    between atoms: _171  and  _174
REMARK   77  A    between atoms: _174  and  _175
REMARK   78  A    between atoms: _181  and  _183
REMARK   79  A    between atoms: _183  and  _184
REMARK   80  A    between atoms: _183  and  _186
REMARK   81  A    between atoms: _186  and  _187
REMARK   82  A    between atoms: _190  and  _192
REMARK   83  A    between atoms: _192  and  _193
REMARK   84  A    between atoms: _192  and  _195
REMARK   85  A    between atoms: _198  and  _200
REMARK   86  A    between atoms: _200  and  _201
REMARK   87  A    between atoms: _200  and  _203
REMARK   88  A    between atoms: _203  and  _204
REMARK   89  A    between atoms: _208  and  _209
REMARK   90  A    between atoms: _214  and  _216
REMARK   91  A    between atoms: _216  and  _217
REMARK   92  A    between atoms: _216  and  _219
REMARK   93  A    between atoms: _219  and  _220
REMARK   94  A    between atoms: _224  and  _225
REMARK   95  A    between atoms: _230  and  _232
REMARK   96  A    between atoms: _232  and  _233
REMARK   97  A    between atoms: _232  and  _235
REMARK   98  A    between atoms: _238  and  _240
REMARK   99  A    between atoms: _240  and  _241
REMARK  100  A    between atoms: _240  and  _243
REMARK  101  A    between atoms: _243  and  _244
REMARK  102  A    between atoms: _249  and  _251
REMARK  103  A    between atoms: _251  and  _252
REMARK  104  A    between atoms: _251  and  _254
REMARK  105  A    between atoms: _254  and  _255
REMARK  106  A    between atoms: _258  and  _260
REMARK  107  A    between atoms: _260  and  _261
REMARK  108  A    between atoms: _260  and  _263
REMARK  109  A    between atoms: _263  and  _264
REMARK  110  A    between atoms: _267  and  _269
REMARK  111  A    between atoms: _269  and  _270
REMARK  112  A    between atoms: _272  and  _274
REMARK  113  A    between atoms: _274  and  _275
REMARK  114  A    between atoms: _274  and  _277
REMARK  115  A    between atoms: _277  and  _278
REMARK  116  A    between atoms: _278  and  _279
REMARK  117  A    between atoms: _279  and  _280
REMARK  118  A    between atoms: _289  and  _291
REMARK  119  A    between atoms: _291  and  _292
REMARK  120  A    between atoms: _291  and  _294
REMARK  121  A    between atoms: _294  and  _295
REMARK  122  A    between atoms: _300  and  _302
REMARK  123  A    between atoms: _302  and  _303
REMARK  124  A    between atoms: _302  and  _305
REMARK  125  A    between atoms: _305  and  _306
REMARK  126  A    between atoms: _306  and  _307
REMARK  127  A    between atoms: _307  and  _308
REMARK  128  A    between atoms: _317  and  _319
REMARK  129  A    between atoms: _319  and  _320
REMARK  130  A    between atoms: _319  and  _322
REMARK  131  A    between atoms: _322  and  _323
REMARK  132  A    between atoms: _326  and  _328
REMARK  133  A    between atoms: _328  and  _329
REMARK  134  A    between atoms: _328  and  _331
REMARK  135  A    between atoms: _331  and  _332
REMARK  136  A    between atoms: _335  and  _337
REMARK  137  A    between atoms: _337  and  _338
REMARK  138  A    between atoms: _337  and  _340
REMARK  139  A    between atoms: _340  and  _341
REMARK  140  A    between atoms: _344  and  _346
REMARK  141  A    between atoms: _346  and  _347
REMARK  142  A    between atoms: _346  and  _349
REMARK  143  A    between atoms: _349  and  _350
REMARK  144  A    between atoms: _353  and  _355
REMARK  145  A    between atoms: _355  and  _356
REMARK  146  A    between atoms: _355  and  _358
REMARK  147  A    between atoms: _358  and  _359
REMARK  148  A    between atoms: _362  and  _364
REMARK  149  A    between atoms: _364  and  _365
REMARK  150  A    between atoms: _367  and  _369
REMARK  151  A    between atoms: _369  and  _370
REMARK  152  A    between atoms: _373  and  _375
REMARK  153  A    between atoms: _375  and  _376
REMARK  154  A    between atoms: _375  and  _378
REMARK  155  A    between atoms: _378  and  _379
REMARK  156  A    between atoms: _382  and  _384
REMARK  157  A    between atoms: _384  and  _385
REMARK  158  A    between atoms: _384  and  _387
REMARK  159  A    between atoms: _387  and  _388
REMARK  160  A    between atoms: _391  and  _393
REMARK  161  A    between atoms: _393  and  _394
REMARK  162  A    between atoms: _393  and  _396
REMARK  163  A    between atoms: _396  and  _397
REMARK  164  A    between atoms: _400  and  _402
REMARK  165  A    between atoms: _402  and  _403
REMARK  166  A    between atoms: _402  and  _405
REMARK  167  A    between atoms: _408  and  _410
REMARK  168  A    between atoms: _410  and  _411
REMARK  169  A    between atoms: _410  and  _413
REMARK  170  A    between atoms: _413  and  _414
REMARK  171  A    between atoms: _414  and  _415
REMARK  172  A    between atoms: _415  and  _416
REMARK  173  A    between atoms: _416  and  _417
REMARK  174  A    between atoms: _421  and  _423
REMARK  175  A    between atoms: _423  and  _424
REMARK  176  A    between atoms: _423  and  _426
REMARK  177  A    between atoms: _426  and  _427
REMARK  178  A    between atoms: _427  and  _428
REMARK  179  A    between atoms: _430  and  _432
REMARK  180  A    between atoms: _432  and  _433
REMARK  181  A    between atoms: _432  and  _435
REMARK  182  A    between atoms: _435  and  _436
REMARK  183  A    between atoms: _439  and  _441
REMARK  184  A    between atoms: _441  and  _442
REMARK  185  A    between atoms: _444  and  _446
REMARK  186  A    between atoms: _446  and  _447
REMARK  187  A    between atoms: _449  and  _451
REMARK  188  A    between atoms: _451  and  _452
REMARK  189  A    between atoms: _451  and  _454
REMARK  190  A    between atoms: _454  and  _455
REMARK  191  A    between atoms: _458  and  _460
REMARK  192  A    between atoms: _460  and  _461
REMARK  193  A    between atoms: _463  and  _465
REMARK  194  A    between atoms: _465  and  _466
REMARK  195  A    between atoms: _468  and  _470
REMARK  196  A    between atoms: _470  and  _471
REMARK  197  A    between atoms: _470  and  _473
REMARK  198  A    between atoms: _473  and  _474
REMARK  199  A    between atoms: _480  and  _482
REMARK  200  A    between atoms: _482  and  _483
REMARK  201  A    between atoms: _482  and  _485
REMARK  202  A    between atoms: _485  and  _486
REMARK  203  A    between atoms: _489  and  _491
REMARK  204  A    between atoms: _491  and  _492
REMARK  205  A    between atoms: _491  and  _494
REMARK  206  A    between atoms: _497  and  _499
REMARK  207  A    between atoms: _499  and  _500
REMARK  208  A    between atoms: _499  and  _502
REMARK  209  A    between atoms: _502  and  _503
REMARK  210  A    between atoms: _506  and  _508
REMARK  211  A    between atoms: _508  and  _509
REMARK  212  A    between atoms: _508  and  _511
REMARK  213  A    between atoms: _511  and  _512
REMARK  214  A    between atoms: _516  and  _517
REMARK  215  A    between atoms: _522  and  _524
REMARK  216  A    between atoms: _524  and  _525
REMARK  217  A    between atoms: _524  and  _527
REMARK  218  A    between atoms: _530  and  _532
REMARK  219  A    between atoms: _532  and  _533
REMARK  220  A    between atoms: _532  and  _535
REMARK  221  A    between atoms: _535  and  _536
REMARK  222  A    between atoms: _541  and  _543
REMARK  223  A    between atoms: _543  and  _544
REMARK  224  A    between atoms: _543  and  _546
REMARK  225  A    between atoms: _546  and  _547
REMARK  226  A    between atoms: _550  and  _552
REMARK  227  A    between atoms: _552  and  _553
REMARK  228  A    between atoms: _552  and  _555
REMARK  229  A    between atoms: _555  and  _556
REMARK  230  A    between atoms: _559  and  _561
REMARK  231  A    between atoms: _561  and  _562
REMARK  232  A    between atoms: _564  and  _566
REMARK  233  A    between atoms: _566  and  _567
REMARK  234  A    between atoms: _566  and  _569
REMARK  235  A    between atoms: _569  and  _570
REMARK  236  A    between atoms: _570  and  _571
REMARK  237  A    between atoms: _571  and  _572
REMARK  238  A    between atoms: _581  and  _583
REMARK  239  A    between atoms: _583  and  _584
REMARK  240  A    between atoms: _583  and  _586
REMARK  241  A    between atoms: _586  and  _587
REMARK                            x       y       z     vdW  Elec       q    Type
REMARK                         _______ _______ _______ _____ _____    ______ ____
ROOT
ATOM      1  O   HOH     1      12.600 -25.562  -6.207  0.00  0.00    +0.000 OA
ENDROOT
TORSDOF 0
REMARK  Name = ../refined-set-2016/2pk6/2pk6_pocket.pdb
REMARK  241 active torsions:
REMARK  status: ('A' for Active; 'I' for Inactive)
REMARK    1  A    between atoms: _1  and  _3
REMARK    2  A    between atoms: _3  and  _4
REMARK    3  A    between atoms: _3  and  _6
REMARK    4  A    between atoms: _6  and  _7
REMARK    5  A    between atoms: _7  and  _8
REMARK    6  A    between atoms: _8  and  _9
REMARK    7  A    between atoms: _18  and  _20
REMARK    8  A    between atoms: _20  and  _21
REMARK    9  A    between atoms: _20  and  _23
REMARK   10  A    between atoms: _23  and  _24
REMARK   11  A    between atoms: _27  and  _29
REMARK   12  A    between atoms: _29  and  _30
REMARK   13  A    between atoms: _29  and  _32
REMARK   14  A    between atoms: _32  and  _33
REMARK   15  A    between atoms: _36  and  _38
REMARK   16  A    between atoms: _38  and  _39
REMARK   17  A    between atoms: _38  and  _41
REMARK   18  A    between atoms: _41  and  _42
REMARK   19  A    between atoms: _45  and  _47
REMARK   20  A    between atoms: _47  and  _48
REMARK   21  A    between atoms: _47  and  _50
REMARK   22  A    between atoms: _50  and  _51
REMARK   23  A    between atoms: _54  and  _56
REMARK   24  A    between atoms: _56  and  _57
REMARK   25  A    between atoms: _59  and  _61
REMARK   26  A    between atoms: _61  and  _62
REMARK   27  A    between atoms: _65  and  _67
REMARK   28  A    between atoms: _67  and  _68
REMARK   29  A    between atoms: _67  and  _70
REMARK   30  A    between atoms: _70  and  _71
REMARK   31  A    between atoms: _74  and  _76
REMARK   32  A    between atoms: _76  and  _77
REMARK   33  A    between atoms: _76  and  _79
REMARK   34  A    between atoms: _79  and  _80
REMARK   35  A    between atoms: _83  and  _85
REMARK   36  A    between atoms: _85  and  _86
REMARK   37  A    between atoms: _85  and  _88
REMARK   38  A    between atoms: _88  and  _89
REMARK   39  A    between atoms: _92  and  _94
REMARK   40  A    between atoms: _94  and  _95
REMARK   41  A    between atoms: _94  and  _97
REMARK   42  A    between atoms: _100  and  _102
REMARK   43  A    between atoms: _102  and  _103
REMARK   44  A    between atoms: _102  and  _105
REMARK   45  A    between atoms: _105  and  _106
REMARK   46  A    between atoms: _109  and  _111
REMARK   47  A    between atoms: _111  and  _112
REMARK   48  A    between atoms: _111  and  _114
REMARK   49  A    between atoms: _114  and  _115
REMARK   50  A    between atoms: _115  and  _116
REMARK   51  A    between atoms: _116  and  _117
REMARK   52  A    between atoms: _117  and  _118
REMARK   53  A    between atoms: _122  and  _124
REMARK   54  A    between atoms: _124  and  _125
REMARK   55  A    between atoms: _124  and  _127
REMARK   56  A    between atoms: _127  and  _128
REMARK   57  A    between atoms: _128  and  _129
REMARK   58  A    between atoms: _131  and  _133
REMARK   59  A    between atoms: _133  and  _134
REMARK   60  A    between atoms: _133  and  _136
REMARK   61  A    between atoms: _136  and  _137
REMARK   62  A    between atoms: _140  and  _142
REMARK   63  A    between atoms: _142  and  _143
REMARK   64  A    between atoms: _145  and  _147
REMARK   65  A    between atoms: _147  and  _148
REMARK   66  A    between atoms: _150  and  _152
REMARK   67  A    between atoms: _152  and  _153
REMARK   68  A    between atoms: _152  and  _155
REMARK   69  A    between atoms: _155  and  _156
REMARK   70  A    between atoms: _159  and  _161
REMARK   71  A    between atoms: _161  and  _162
REMARK   72  A    between atoms: _164  and  _166
REMARK   73  A    between atoms: _166  and  _167
REMARK   74  A    between atoms: _169  and  _171
REMARK   75  A    between atoms: _171  and  _172
REMARK   76  A    between atoms: _171  and  _174
REMARK   77  A    between atoms: _174  and  _175
REMARK   78  A    between atoms: _181  and  _183
REMARK   79  A    between atoms: _183  and  _184
REMARK   80  A    between atoms: _183  and  _186
REMARK   81  A    between atoms: _186  and  _187
REMARK   82  A    between atoms: _190  and  _192
REMARK   83  A    between atoms: _192  and  _193
REMARK   84  A    between atoms: _192  and  _195
REMARK   85  A    between atoms: _198  and  _200
REMARK   86  A    between atoms: _200  and  _201
REMARK   87  A    between atoms: _200  and  _203
REMARK   88  A    between atoms: _203  and  _204
REMARK   89  A    between atoms: _208  and  _209
REMARK   90  A    between atoms: _214  and  _216
REMARK   91  A    between atoms: _216  and  _217
REMARK   92  A    between atoms: _216  and  _219
REMARK   93  A    between atoms: _219  and  _220
REMARK   94  A    between atoms: _224  and  _225
REMARK   95  A    between atoms: _230  and  _232
REMARK   96  A    between atoms: _232  and  _233
REMARK   97  A    between atoms: _232  and  _235
REMARK   98  A    between atoms: _238  and  _240
REMARK   99  A    between atoms: _240  and  _241
REMARK  100  A    between atoms: _240  and  _243
REMARK  101  A    between atoms: _243  and  _244
REMARK  102  A    between atoms: _249  and  _251
REMARK  103  A    between atoms: _251  and  _252
REMARK  104  A    between atoms: _251  and  _254
REMARK  105  A    between atoms: _254  and  _255
REMARK  106  A    between atoms: _258  and  _260
REMARK  107  A    between atoms: _260  and  _261
REMARK  108  A    between atoms: _260  and  _263
REMARK  109  A    between atoms: _263  and  _264
REMARK  110  A    between atoms: _267  and  _269
REMARK  111  A    between atoms: _269  and  _270
REMARK  112  A    between atoms: _272  and  _274
REMARK  113  A    between atoms: _274  and  _275
REMARK  114  A    between atoms: _274  and  _277
REMARK  115  A    between atoms: _277  and  _278
REMARK  116  A    between atoms: _278  and  _279
REMARK  117  A    between atoms: _279  and  _280
REMARK  118  A    between atoms: _289  and  _291
REMARK  119  A    between atoms: _291  and  _292
REMARK  120  A    between atoms: _291  and  _294
REMARK  121  A    between atoms: _294  and  _295
REMARK  122  A    between atoms: _300  and  _302
REMARK  123  A    between atoms: _302  and  _303
REMARK  124  A    between atoms: _302  and  _305
REMARK  125  A    between atoms: _305  and  _306
REMARK  126  A    between atoms: _306  and  _307
REMARK  127  A    between atoms: _307  and  _308
REMARK  128  A    between atoms: _317  and  _319
REMARK  129  A    between atoms: _319  and  _320
REMARK  130  A    between atoms: _319  and  _322
REMARK  131  A    between atoms: _322  and  _323
REMARK  132  A    between atoms: _326  and  _328
REMARK  133  A    between atoms: _328  and  _329
REMARK  134  A    between atoms: _328  and  _331
REMARK  135  A    between atoms: _331  and  _332
REMARK  136  A    between atoms: _335  and  _337
REMARK  137  A    between atoms: _337  and  _338
REMARK  138  A    between atoms: _337  and  _340
REMARK  139  A    between atoms: _340  and  _341
REMARK  140  A    between atoms: _344  and  _346
REMARK  141  A    between atoms: _346  and  _347
REMARK  142  A    between atoms: _346  and  _349
REMARK  143  A    between atoms: _349  and  _350
REMARK  144  A    between atoms: _353  and  _355
REMARK  145  A    between atoms: _355  and  _356
REMARK  146  A    between atoms: _355  and  _358
REMARK  147  A    between atoms: _358  and  _359
REMARK  148  A    between atoms: _362  and  _364
REMARK  149  A    between atoms: _364  and  _365
REMARK  150  A    between atoms: _367  and  _369
REMARK  151  A    between atoms: _369  and  _370
REMARK  152  A    between atoms: _373  and  _375
REMARK  153  A    between atoms: _375  and  _376
REMARK  154  A    between atoms: _375  and  _378
REMARK  155  A    between atoms: _378  and  _379
REMARK  156  A    between atoms: _382  and  _384
REMARK  157  A    between atoms: _384  and  _385
REMARK  158  A    between atoms: _384  and  _387
REMARK  159  A    between atoms: _387  and  _388
REMARK  160  A    between atoms: _391  and  _393
REMARK  161  A    between atoms: _393  and  _394
REMARK  162  A    between atoms: _393  and  _396
REMARK  163  A    between atoms: _396  and  _397
REMARK  164  A    between atoms: _400  and  _402
REMARK  165  A    between atoms: _402  and  _403
REMARK  166  A    between atoms: _402  and  _405
REMARK  167  A    between atoms: _408  and  _410
REMARK  168  A    between atoms: _410  and  _411
REMARK  169  A    between atoms: _410  and  _413
REMARK  170  A    between atoms: _413  and  _414
REMARK  171  A    between atoms: _414  and  _415
REMARK  172  A    between atoms: _415  and  _416
REMARK  173  A    between atoms: _416  and  _417
REMARK  174  A    between atoms: _421  and  _423
REMARK  175  A    between atoms: _423  and  _424
REMARK  176  A    between atoms: _423  and  _426
REMARK  177  A    between atoms: _426  and  _427
REMARK  178  A    between atoms: _427  and  _428
REMARK  179  A    between atoms: _430  and  _432
REMARK  180  A    between atoms: _432  and  _433
REMARK  181  A    between atoms: _432  and  _435
REMARK  182  A    between atoms: _435  and  _436
REMARK  183  A    between atoms: _439  and  _441
REMARK  184  A    between atoms: _441  and  _442
REMARK  185  A    between atoms: _444  and  _446
REMARK  186  A    between atoms: _446  and  _447
REMARK  187  A    between atoms: _449  and  _451
REMARK  188  A    between atoms: _451  and  _452
REMARK  189  A    between atoms: _451  and  _454
REMARK  190  A    between atoms: _454  and  _455
REMARK  191  A    between atoms: _458  and  _460
REMARK  192  A    between atoms: _460  and  _461
REMARK  193  A    between atoms: _463  and  _465
REMARK  194  A    between atoms: _465  and  _466
REMARK  195  A    between atoms: _468  and  _470
REMARK  196  A    between atoms: _470  and  _471
REMARK  197  A    between atoms: _470  and  _473
REMARK  198  A    between atoms: _473  and  _474
REMARK  199  A    between atoms: _480  and  _482
REMARK  200  A    between atoms: _482  and  _483
REMARK  201  A    between atoms: _482  and  _485
REMARK  202  A    between atoms: _485  and  _486
REMARK  203  A    between atoms: _489  and  _491
REMARK  204  A    between atoms: _491  and  _492
REMARK  205  A    between atoms: _491  and  _494
REMARK  206  A    between atoms: _497  and  _499
REMARK  207  A    between atoms: _499  and  _500
REMARK  208  A    between atoms: _499  and  _502
REMARK  209  A    between atoms: _502  and  _503
REMARK  210  A    between atoms: _506  and  _508
REMARK  211  A    between atoms: _508  and  _509
REMARK  212  A    between atoms: _508  and  _511
REMARK  213  A    between atoms: _511  and  _512
REMARK  214  A    between atoms: _516  and  _517
REMARK  215  A    between atoms: _522  and  _524
REMARK  216  A    between atoms: _524  and  _525
REMARK  217  A    between atoms: _524  and  _527
REMARK  218  A    between atoms: _530  and  _532
REMARK  219  A    between atoms: _532  and  _533
REMARK  220  A    between atoms: _532  and  _535
REMARK  221  A    between atoms: _535  and  _536
REMARK  222  A    between atoms: _541  and  _543
REMARK  223  A    between atoms: _543  and  _544
REMARK  224  A    between atoms: _543  and  _546
REMARK  225  A    between atoms: _546  and  _547
REMARK  226  A    between atoms: _550  and  _552
REMARK  227  A    between atoms: _552  and  _553
REMARK  228  A    between atoms: _552  and  _555
REMARK  229  A    between atoms: _555  and  _556
REMARK  230  A    between atoms: _559  and  _561
REMARK  231  A    between atoms: _561  and  _562
REMARK  232  A    between atoms: _564  and  _566
REMARK  233  A    between atoms: _566  and  _567
REMARK  234  A    between atoms: _566  and  _569
REMARK  235  A    between atoms: _569  and  _570
REMARK  236  A    between atoms: _570  and  _571
REMARK  237  A    between atoms: _571  and  _572
REMARK  238  A    between atoms: _581  and  _583
REMARK  239  A    between atoms: _583  and  _584
REMARK  240  A    between atoms: _583  and  _586
REMARK  241  A    between atoms: _586  and  _587
REMARK                            x       y       z     vdW  Elec       q    Type
REMARK                         _______ _______ _______ _____ _____    ______ ____
ROOT
ATOM      1  O   HOH     1       2.657 -18.726 -18.359  0.00  0.00    +0.000 OA
ENDROOT
TORSDOF 0
REMARK  Name = ../refined-set-2016/2pk6/2pk6_pocket.pdb
REMARK  241 active torsions:
REMARK  status: ('A' for Active; 'I' for Inactive)
REMARK    1  A    between atoms: _1  and  _3
REMARK    2  A    between atoms: _3  and  _4
REMARK    3  A    between atoms: _3  and  _6
REMARK    4  A    between atoms: _6  and  _7
REMARK    5  A    between atoms: _7  and  _8
REMARK    6  A    between atoms: _8  and  _9
REMARK    7  A    between atoms: _18  and  _20
REMARK    8  A    between atoms: _20  and  _21
REMARK    9  A    between atoms: _20  and  _23
REMARK   10  A    between atoms: _23  and  _24
REMARK   11  A    between atoms: _27  and  _29
REMARK   12  A    between atoms: _29  and  _30
REMARK   13  A    between atoms: _29  and  _32
REMARK   14  A    between atoms: _32  and  _33
REMARK   15  A    between atoms: _36  and  _38
REMARK   16  A    between atoms: _38  and  _39
REMARK   17  A    between atoms: _38  and  _41
REMARK   18  A    between atoms: _41  and  _42
REMARK   19  A    between atoms: _45  and  _47
REMARK   20  A    between atoms: _47  and  _48
REMARK   21  A    between atoms: _47  and  _50
REMARK   22  A    between atoms: _50  and  _51
REMARK   23  A    between atoms: _54  and  _56
REMARK   24  A    between atoms: _56  and  _57
REMARK   25  A    between atoms: _59  and  _61
REMARK   26  A    between atoms: _61  and  _62
REMARK   27  A    between atoms: _65  and  _67
REMARK   28  A    between atoms: _67  and  _68
REMARK   29  A    between atoms: _67  and  _70
REMARK   30  A    between atoms: _70  and  _71
REMARK   31  A    between atoms: _74  and  _76
REMARK   32  A    between atoms: _76  and  _77
REMARK   33  A    between atoms: _76  and  _79
REMARK   34  A    between atoms: _79  and  _80
REMARK   35  A    between atoms: _83  and  _85
REMARK   36  A    between atoms: _85  and  _86
REMARK   37  A    between atoms: _85  and  _88
REMARK   38  A    between atoms: _88  and  _89
REMARK   39  A    between atoms: _92  and  _94
REMARK   40  A    between atoms: _94  and  _95
REMARK   41  A    between atoms: _94  and  _97
REMARK   42  A    between atoms: _100  and  _102
REMARK   43  A    between atoms: _102  and  _103
REMARK   44  A    between atoms: _102  and  _105
REMARK   45  A    between atoms: _105  and  _106
REMARK   46  A    between atoms: _109  and  _111
REMARK   47  A    between atoms: _111  and  _112
REMARK   48  A    between atoms: _111  and  _114
REMARK   49  A    between atoms: _114  and  _115
REMARK   50  A    between atoms: _115  and  _116
REMARK   51  A    between atoms: _116  and  _117
REMARK   52  A    between atoms: _117  and  _118
REMARK   53  A    between atoms: _122  and  _124
REMARK   54  A    between atoms: _124  and  _125
REMARK   55  A    between atoms: _124  and  _127
REMARK   56  A    between atoms: _127  and  _128
REMARK   57  A    between atoms: _128  and  _129
REMARK   58  A    between atoms: _131  and  _133
REMARK   59  A    between atoms: _133  and  _134
REMARK   60  A    between atoms: _133  and  _136
REMARK   61  A    between atoms: _136  and  _137
REMARK   62  A    between atoms: _140  and  _142
REMARK   63  A    between atoms: _142  and  _143
REMARK   64  A    between atoms: _145  and  _147
REMARK   65  A    between atoms: _147  and  _148
REMARK   66  A    between atoms: _150  and  _152
REMARK   67  A    between atoms: _152  and  _153
REMARK   68  A    between atoms: _152  and  _155
REMARK   69  A    between atoms: _155  and  _156
REMARK   70  A    between atoms: _159  and  _161
REMARK   71  A    between atoms: _161  and  _162
REMARK   72  A    between atoms: _164  and  _166
REMARK   73  A    between atoms: _166  and  _167
REMARK   74  A    between atoms: _169  and  _171
REMARK   75  A    between atoms: _171  and  _172
REMARK   76  A    between atoms: _171  and  _174
REMARK   77  A    between atoms: _174  and  _175
REMARK   78  A    between atoms: _181  and  _183
REMARK   79  A    between atoms: _183  and  _184
REMARK   80  A    between atoms: _183  and  _186
REMARK   81  A    between atoms: _186  and  _187
REMARK   82  A    between atoms: _190  and  _192
REMARK   83  A    between atoms: _192  and  _193
REMARK   84  A    between atoms: _192  and  _195
REMARK   85  A    between atoms: _198  and  _200
REMARK   86  A    between atoms: _200  and  _201
REMARK   87  A    between atoms: _200  and  _203
REMARK   88  A    between atoms: _203  and  _204
REMARK   89  A    between atoms: _208  and  _209
REMARK   90  A    between atoms: _214  and  _216
REMARK   91  A    between atoms: _216  and  _217
REMARK   92  A    between atoms: _216  and  _219
REMARK   93  A    between atoms: _219  and  _220
REMARK   94  A    between atoms: _224  and  _225
REMARK   95  A    between atoms: _230  and  _232
REMARK   96  A    between atoms: _232  and  _233
REMARK   97  A    between atoms: _232  and  _235
REMARK   98  A    between atoms: _238  and  _240
REMARK   99  A    between atoms: _240  and  _241
REMARK  100  A    between atoms: _240  and  _243
REMARK  101  A    between atoms: _243  and  _244
REMARK  102  A    between atoms: _249  and  _251
REMARK  103  A    between atoms: _251  and  _252
REMARK  104  A    between atoms: _251  and  _254
REMARK  105  A    between atoms: _254  and  _255
REMARK  106  A    between atoms: _258  and  _260
REMARK  107  A    between atoms: _260  and  _261
REMARK  108  A    between atoms: _260  and  _263
REMARK  109  A    between atoms: _263  and  _264
REMARK  110  A    between atoms: _267  and  _269
REMARK  111  A    between atoms: _269  and  _270
REMARK  112  A    between atoms: _272  and  _274
REMARK  113  A    between atoms: _274  and  _275
REMARK  114  A    between atoms: _274  and  _277
REMARK  115  A    between atoms: _277  and  _278
REMARK  116  A    between atoms: _278  and  _279
REMARK  117  A    between atoms: _279  and  _280
REMARK  118  A    between atoms: _289  and  _291
REMARK  119  A    between atoms: _291  and  _292
REMARK  120  A    between atoms: _291  and  _294
REMARK  121  A    between atoms: _294  and  _295
REMARK  122  A    between atoms: _300  and  _302
REMARK  123  A    between atoms: _302  and  _303
REMARK  124  A    between atoms: _302  and  _305
REMARK  125  A    between atoms: _305  and  _306
REMARK  126  A    between atoms: _306  and  _307
REMARK  127  A    between atoms: _307  and  _308
REMARK  128  A    between atoms: _317  and  _319
REMARK  129  A    between atoms: _319  and  _320
REMARK  130  A    between atoms: _319  and  _322
REMARK  131  A    between atoms: _322  and  _323
REMARK  132  A    between atoms: _326  and  _328
REMARK  133  A    between atoms: _328  and  _329
REMARK  134  A    between atoms: _328  and  _331
REMARK  135  A    between atoms: _331  and  _332
REMARK  136  A    between atoms: _335  and  _337
REMARK  137  A    between atoms: _337  and  _338
REMARK  138  A    between atoms: _337  and  _340
REMARK  139  A    between atoms: _340  and  _341
REMARK  140  A    between atoms: _344  and  _346
REMARK  141  A    between atoms: _346  and  _347
REMARK  142  A    between atoms: _346  and  _349
REMARK  143  A    between atoms: _349  and  _350
REMARK  144  A    between atoms: _353  and  _355
REMARK  145  A    between atoms: _355  and  _356
REMARK  146  A    between atoms: _355  and  _358
REMARK  147  A    between atoms: _358  and  _359
REMARK  148  A    between atoms: _362  and  _364
REMARK  149  A    between atoms: _364  and  _365
REMARK  150  A    between atoms: _367  and  _369
REMARK  151  A    between atoms: _369  and  _370
REMARK  152  A    between atoms: _373  and  _375
REMARK  153  A    between atoms: _375  and  _376
REMARK  154  A    between atoms: _375  and  _378
REMARK  155  A    between atoms: _378  and  _379
REMARK  156  A    between atoms: _382  and  _384
REMARK  157  A    between atoms: _384  and  _385
REMARK  158  A    between atoms: _384  and  _387
REMARK  159  A    between atoms: _387  and  _388
REMARK  160  A    between atoms: _391  and  _393
REMARK  161  A    between atoms: _393  and  _394
REMARK  162  A    between atoms: _393  and  _396
REMARK  163  A    between atoms: _396  and  _397
REMARK  164  A    between atoms: _400  and  _402
REMARK  165  A    between atoms: _402  and  _403
REMARK  166  A    between atoms: _402  and  _405
REMARK  167  A    between atoms: _408  and  _410
REMARK  168  A    between atoms: _410  and  _411
REMARK  169  A    between atoms: _410  and  _413
REMARK  170  A    between atoms: _413  and  _414
REMARK  171  A    between atoms: _414  and  _415
REMARK  172  A    between atoms: _415  and  _416
REMARK  173  A    between atoms: _416  and  _417
REMARK  174  A    between atoms: _421  and  _423
REMARK  175  A    between atoms: _423  and  _424
REMARK  176  A    between atoms: _423  and  _426
REMARK  177  A    between atoms: _426  and  _427
REMARK  178  A    between atoms: _427  and  _428
REMARK  179  A    between atoms: _430  and  _432
REMARK  180  A    between atoms: _432  and  _433
REMARK  181  A    between atoms: _432  and  _435
REMARK  182  A    between atoms: _435  and  _436
REMARK  183  A    between atoms: _439  and  _441
REMARK  184  A    between atoms: _441  and  _442
REMARK  185  A    between atoms: _444  and  _446
REMARK  186  A    between atoms: _446  and  _447
REMARK  187  A    between atoms: _449  and  _451
REMARK  188  A    between atoms: _451  and  _452
REMARK  189  A    between atoms: _451  and  _454
REMARK  190  A    between atoms: _454  and  _455
REMARK  191  A    between atoms: _458  and  _460
REMARK  192  A    between atoms: _460  and  _461
REMARK  193  A    between atoms: _463  and  _465
REMARK  194  A    between atoms: _465  and  _466
REMARK  195  A    between atoms: _468  and  _470
REMARK  196  A    between atoms: _470  and  _471
REMARK  197  A    between atoms: _470  and  _473
REMARK  198  A    between atoms: _473  and  _474
REMARK  199  A    between atoms: _480  and  _482
REMARK  200  A    between atoms: _482  and  _483
REMARK  201  A    between atoms: _482  and  _485
REMARK  202  A    between atoms: _485  and  _486
REMARK  203  A    between atoms: _489  and  _491
REMARK  204  A    between atoms: _491  and  _492
REMARK  205  A    between atoms: _491  and  _494
REMARK  206  A    between atoms: _497  and  _499
REMARK  207  A    between atoms: _499  and  _500
REMARK  208  A    between atoms: _499  and  _502
REMARK  209  A    between atoms: _502  and  _503
REMARK  210  A    between atoms: _506  and  _508
REMARK  211  A    between atoms: _508  and  _509
REMARK  212  A    between atoms: _508  and  _511
REMARK  213  A    between atoms: _511  and  _512
REMARK  214  A    between atoms: _516  and  _517
REMARK  215  A    between atoms: _522  and  _524
REMARK  216  A    between atoms: _524  and  _525
REMARK  217  A    between atoms: _524  and  _527
REMARK  218  A    between atoms: _530  and  _532
REMARK  219  A    between atoms: _532  and  _533
REMARK  220  A    between atoms: _532  and  _535
REMARK  221  A    between atoms: _535  and  _536
REMARK  222  A    between atoms: _541  and  _543
REMARK  223  A    between atoms: _543  and  _544
REMARK  224  A    between atoms: _543  and  _546
REMARK  225  A    between atoms: _546  and  _547
REMARK  226  A    between atoms: _550  and  _552
REMARK  227  A    between atoms: _552  and  _553
REMARK  228  A    between atoms: _552  and  _555
REMARK  229  A    between atoms: _555  and  _556
REMARK  230  A    between atoms: _559  and  _561
REMARK  231  A    between atoms: _561  and  _562
REMARK  232  A    between atoms: _564  and  _566
REMARK  233  A    between atoms: _566  and  _567
REMARK  234  A    between atoms: _566  and  _569
REMARK  235  A    between atoms: _569  and  _570
REMARK  236  A    between atoms: _570  and  _571
REMARK  237  A    between atoms: _571  and  _572
REMARK  238  A    between atoms: _581  and  _583
REMARK  239  A    between atoms: _583  and  _584
REMARK  240  A    between atoms: _583  and  _586
REMARK  241  A    between atoms: _586  and  _587
REMARK                            x       y       z     vdW  Elec       q    Type
REMARK                         _______ _______ _______ _____ _____    ______ ____
ROOT
ATOM      1  O   HOH     1      23.644 -26.801 -12.109  0.00  0.00    +0.000 OA
ENDROOT
TORSDOF 0
REMARK  Name = ../refined-set-2016/2pk6/2pk6_pocket.pdb
REMARK  241 active torsions:
REMARK  status: ('A' for Active; 'I' for Inactive)
REMARK    1  A    between atoms: _1  and  _3
REMARK    2  A    between atoms: _3  and  _4
REMARK    3  A    between atoms: _3  and  _6
REMARK    4  A    between atoms: _6  and  _7
REMARK    5  A    between atoms: _7  and  _8
REMARK    6  A    between atoms: _8  and  _9
REMARK    7  A    between atoms: _18  and  _20
REMARK    8  A    between atoms: _20  and  _21
REMARK    9  A    between atoms: _20  and  _23
REMARK   10  A    between atoms: _23  and  _24
REMARK   11  A    between atoms: _27  and  _29
REMARK   12  A    between atoms: _29  and  _30
REMARK   13  A    between atoms: _29  and  _32
REMARK   14  A    between atoms: _32  and  _33
REMARK   15  A    between atoms: _36  and  _38
REMARK   16  A    between atoms: _38  and  _39
REMARK   17  A    between atoms: _38  and  _41
REMARK   18  A    between atoms: _41  and  _42
REMARK   19  A    between atoms: _45  and  _47
REMARK   20  A    between atoms: _47  and  _48
REMARK   21  A    between atoms: _47  and  _50
REMARK   22  A    between atoms: _50  and  _51
REMARK   23  A    between atoms: _54  and  _56
REMARK   24  A    between atoms: _56  and  _57
REMARK   25  A    between atoms: _59  and  _61
REMARK   26  A    between atoms: _61  and  _62
REMARK   27  A    between atoms: _65  and  _67
REMARK   28  A    between atoms: _67  and  _68
REMARK   29  A    between atoms: _67  and  _70
REMARK   30  A    between atoms: _70  and  _71
REMARK   31  A    between atoms: _74  and  _76
REMARK   32  A    between atoms: _76  and  _77
REMARK   33  A    between atoms: _76  and  _79
REMARK   34  A    between atoms: _79  and  _80
REMARK   35  A    between atoms: _83  and  _85
REMARK   36  A    between atoms: _85  and  _86
REMARK   37  A    between atoms: _85  and  _88
REMARK   38  A    between atoms: _88  and  _89
REMARK   39  A    between atoms: _92  and  _94
REMARK   40  A    between atoms: _94  and  _95
REMARK   41  A    between atoms: _94  and  _97
REMARK   42  A    between atoms: _100  and  _102
REMARK   43  A    between atoms: _102  and  _103
REMARK   44  A    between atoms: _102  and  _105
REMARK   45  A    between atoms: _105  and  _106
REMARK   46  A    between atoms: _109  and  _111
REMARK   47  A    between atoms: _111  and  _112
REMARK   48  A    between atoms: _111  and  _114
REMARK   49  A    between atoms: _114  and  _115
REMARK   50  A    between atoms: _115  and  _116
REMARK   51  A    between atoms: _116  and  _117
REMARK   52  A    between atoms: _117  and  _118
REMARK   53  A    between atoms: _122  and  _124
REMARK   54  A    between atoms: _124  and  _125
REMARK   55  A    between atoms: _124  and  _127
REMARK   56  A    between atoms: _127  and  _128
REMARK   57  A    between atoms: _128  and  _129
REMARK   58  A    between atoms: _131  and  _133
REMARK   59  A    between atoms: _133  and  _134
REMARK   60  A    between atoms: _133  and  _136
REMARK   61  A    between atoms: _136  and  _137
REMARK   62  A    between atoms: _140  and  _142
REMARK   63  A    between atoms: _142  and  _143
REMARK   64  A    between atoms: _145  and  _147
REMARK   65  A    between atoms: _147  and  _148
REMARK   66  A    between atoms: _150  and  _152
REMARK   67  A    between atoms: _152  and  _153
REMARK   68  A    between atoms: _152  and  _155
REMARK   69  A    between atoms: _155  and  _156
REMARK   70  A    between atoms: _159  and  _161
REMARK   71  A    between atoms: _161  and  _162
REMARK   72  A    between atoms: _164  and  _166
REMARK   73  A    between atoms: _166  and  _167
REMARK   74  A    between atoms: _169  and  _171
REMARK   75  A    between atoms: _171  and  _172
REMARK   76  A    between atoms: _171  and  _174
REMARK   77  A    between atoms: _174  and  _175
REMARK   78  A    between atoms: _181  and  _183
REMARK   79  A    between atoms: _183  and  _184
REMARK   80  A    between atoms: _183  and  _186
REMARK   81  A    between atoms: _186  and  _187
REMARK   82  A    between atoms: _190  and  _192
REMARK   83  A    between atoms: _192  and  _193
REMARK   84  A    between atoms: _192  and  _195
REMARK   85  A    between atoms: _198  and  _200
REMARK   86  A    between atoms: _200  and  _201
REMARK   87  A    between atoms: _200  and  _203
REMARK   88  A    between atoms: _203  and  _204
REMARK   89  A    between atoms: _208  and  _209
REMARK   90  A    between atoms: _214  and  _216
REMARK   91  A    between atoms: _216  and  _217
REMARK   92  A    between atoms: _216  and  _219
REMARK   93  A    between atoms: _219  and  _220
REMARK   94  A    between atoms: _224  and  _225
REMARK   95  A    between atoms: _230  and  _232
REMARK   96  A    between atoms: _232  and  _233
REMARK   97  A    between atoms: _232  and  _235
REMARK   98  A    between atoms: _238  and  _240
REMARK   99  A    between atoms: _240  and  _241
REMARK  100  A    between atoms: _240  and  _243
REMARK  101  A    between atoms: _243  and  _244
REMARK  102  A    between atoms: _249  and  _251
REMARK  103  A    between atoms: _251  and  _252
REMARK  104  A    between atoms: _251  and  _254
REMARK  105  A    between atoms: _254  and  _255
REMARK  106  A    between atoms: _258  and  _260
REMARK  107  A    between atoms: _260  and  _261
REMARK  108  A    between atoms: _260  and  _263
REMARK  109  A    between atoms: _263  and  _264
REMARK  110  A    between atoms: _267  and  _269
REMARK  111  A    between atoms: _269  and  _270
REMARK  112  A    between atoms: _272  and  _274
REMARK  113  A    between atoms: _274  and  _275
REMARK  114  A    between atoms: _274  and  _277
REMARK  115  A    between atoms: _277  and  _278
REMARK  116  A    between atoms: _278  and  _279
REMARK  117  A    between atoms: _279  and  _280
REMARK  118  A    between atoms: _289  and  _291
REMARK  119  A    between atoms: _291  and  _292
REMARK  120  A    between atoms: _291  and  _294
REMARK  121  A    between atoms: _294  and  _295
REMARK  122  A    between atoms: _300  and  _302
REMARK  123  A    between atoms: _302  and  _303
REMARK  124  A    between atoms: _302  and  _305
REMARK  125  A    between atoms: _305  and  _306
REMARK  126  A    between atoms: _306  and  _307
REMARK  127  A    between atoms: _307  and  _308
REMARK  128  A    between atoms: _317  and  _319
REMARK  129  A    between atoms: _319  and  _320
REMARK  130  A    between atoms: _319  and  _322
REMARK  131  A    between atoms: _322  and  _323
REMARK  132  A    between atoms: _326  and  _328
REMARK  133  A    between atoms: _328  and  _329
REMARK  134  A    between atoms: _328  and  _331
REMARK  135  A    between atoms: _331  and  _332
REMARK  136  A    between atoms: _335  and  _337
REMARK  137  A    between atoms: _337  and  _338
REMARK  138  A    between atoms: _337  and  _340
REMARK  139  A    between atoms: _340  and  _341
REMARK  140  A    between atoms: _344  and  _346
REMARK  141  A    between atoms: _346  and  _347
REMARK  142  A    between atoms: _346  and  _349
REMARK  143  A    between atoms: _349  and  _350
REMARK  144  A    between atoms: _353  and  _355
REMARK  145  A    between atoms: _355  and  _356
REMARK  146  A    between atoms: _355  and  _358
REMARK  147  A    between atoms: _358  and  _359
REMARK  148  A    between atoms: _362  and  _364
REMARK  149  A    between atoms: _364  and  _365
REMARK  150  A    between atoms: _367  and  _369
REMARK  151  A    between atoms: _369  and  _370
REMARK  152  A    between atoms: _373  and  _375
REMARK  153  A    between atoms: _375  and  _376
REMARK  154  A    between atoms: _375  and  _378
REMARK  155  A    between atoms: _378  and  _379
REMARK  156  A    between atoms: _382  and  _384
REMARK  157  A    between atoms: _384  and  _385
REMARK  158  A    between atoms: _384  and  _387
REMARK  159  A    between atoms: _387  and  _388
REMARK  160  A    between atoms: _391  and  _393
REMARK  161  A    between atoms: _393  and  _394
REMARK  162  A    between atoms: _393  and  _396
REMARK  163  A    between atoms: _396  and  _397
REMARK  164  A    between atoms: _400  and  _402
REMARK  165  A    between atoms: _402  and  _403
REMARK  166  A    between atoms: _402  and  _405
REMARK  167  A    between atoms: _408  and  _410
REMARK  168  A    between atoms: _410  and  _411
REMARK  169  A    between atoms: _410  and  _413
REMARK  170  A    between atoms: _413  and  _414
REMARK  171  A    between atoms: _414  and  _415
REMARK  172  A    between atoms: _415  and  _416
REMARK  173  A    between atoms: _416  and  _417
REMARK  174  A    between atoms: _421  and  _423
REMARK  175  A    between atoms: _423  and  _424
REMARK  176  A    between atoms: _423  and  _426
REMARK  177  A    between atoms: _426  and  _427
REMARK  178  A    between atoms: _427  and  _428
REMARK  179  A    between atoms: _430  and  _432
REMARK  180  A    between atoms: _432  and  _433
REMARK  181  A    between atoms: _432  and  _435
REMARK  182  A    between atoms: _435  and  _436
REMARK  183  A    between atoms: _439  and  _441
REMARK  184  A    between atoms: _441  and  _442
REMARK  185  A    between atoms: _444  and  _446
REMARK  186  A    between atoms: _446  and  _447
REMARK  187  A    between atoms: _449  and  _451
REMARK  188  A    between atoms: _451  and  _452
REMARK  189  A    between atoms: _451  and  _454
REMARK  190  A    between atoms: _454  and  _455
REMARK  191  A    between atoms: _458  and  _460
REMARK  192  A    between atoms: _460  and  _461
REMARK  193  A    between atoms: _463  and  _465
REMARK  194  A    between atoms: _465  and  _466
REMARK  195  A    between atoms: _468  and  _470
REMARK  196  A    between atoms: _470  and  _471
REMARK  197  A    between atoms: _470  and  _473
REMARK  198  A    between atoms: _473  and  _474
REMARK  199  A    between atoms: _480  and  _482
REMARK  200  A    between atoms: _482  and  _483
REMARK  201  A    between atoms: _482  and  _485
REMARK  202  A    between atoms: _485  and  _486
REMARK  203  A    between atoms: _489  and  _491
REMARK  204  A    between atoms: _491  and  _492
REMARK  205  A    between atoms: _491  and  _494
REMARK  206  A    between atoms: _497  and  _499
REMARK  207  A    between atoms: _499  and  _500
REMARK  208  A    between atoms: _499  and  _502
REMARK  209  A    between atoms: _502  and  _503
REMARK  210  A    between atoms: _506  and  _508
REMARK  211  A    between atoms: _508  and  _509
REMARK  212  A    between atoms: _508  and  _511
REMARK  213  A    between atoms: _511  and  _512
REMARK  214  A    between atoms: _516  and  _517
REMARK  215  A    between atoms: _522  and  _524
REMARK  216  A    between atoms: _524  and  _525
REMARK  217  A    between atoms: _524  and  _527
REMARK  218  A    between atoms: _530  and  _532
REMARK  219  A    between atoms: _532  and  _533
REMARK  220  A    between atoms: _532  and  _535
REMARK  221  A    between atoms: _535  and  _536
REMARK  222  A    between atoms: _541  and  _543
REMARK  223  A    between atoms: _543  and  _544
REMARK  224  A    between atoms: _543  and  _546
REMARK  225  A    between atoms: _546  and  _547
REMARK  226  A    between atoms: _550  and  _552
REMARK  227  A    between atoms: _552  and  _553
REMARK  228  A    between atoms: _552  and  _555
REMARK  229  A    between atoms: _555  and  _556
REMARK  230  A    between atoms: _559  and  _561
REMARK  231  A    between atoms: _561  and  _562
REMARK  232  A    between atoms: _564  and  _566
REMARK  233  A    between atoms: _566  and  _567
REMARK  234  A    between atoms: _566  and  _569
REMARK  235  A    between atoms: _569  and  _570
REMARK  236  A    between atoms: _570  and  _571
REMARK  237  A    between atoms: _571  and  _572
REMARK  238  A    between atoms: _581  and  _583
REMARK  239  A    between atoms: _583  and  _584
REMARK  240  A    between atoms: _583  and  _586
REMARK  241  A    between atoms: _586  and  _587
REMARK                            x       y       z     vdW  Elec       q    Type
REMARK                         _______ _______ _______ _____ _____    ______ ____
ROOT
ATOM      1  O   HOH     1      22.081 -27.891 -13.972  0.00  0.00    +0.000 OA
ENDROOT
TORSDOF 0
REMARK  Name = ../refined-set-2016/2pk6/2pk6_pocket.pdb
REMARK  241 active torsions:
REMARK  status: ('A' for Active; 'I' for Inactive)
REMARK    1  A    between atoms: _1  and  _3
REMARK    2  A    between atoms: _3  and  _4
REMARK    3  A    between atoms: _3  and  _6
REMARK    4  A    between atoms: _6  and  _7
REMARK    5  A    between atoms: _7  and  _8
REMARK    6  A    between atoms: _8  and  _9
REMARK    7  A    between atoms: _18  and  _20
REMARK    8  A    between atoms: _20  and  _21
REMARK    9  A    between atoms: _20  and  _23
REMARK   10  A    between atoms: _23  and  _24
REMARK   11  A    between atoms: _27  and  _29
REMARK   12  A    between atoms: _29  and  _30
REMARK   13  A    between atoms: _29  and  _32
REMARK   14  A    between atoms: _32  and  _33
REMARK   15  A    between atoms: _36  and  _38
REMARK   16  A    between atoms: _38  and  _39
REMARK   17  A    between atoms: _38  and  _41
REMARK   18  A    between atoms: _41  and  _42
REMARK   19  A    between atoms: _45  and  _47
REMARK   20  A    between atoms: _47  and  _48
REMARK   21  A    between atoms: _47  and  _50
REMARK   22  A    between atoms: _50  and  _51
REMARK   23  A    between atoms: _54  and  _56
REMARK   24  A    between atoms: _56  and  _57
REMARK   25  A    between atoms: _59  and  _61
REMARK   26  A    between atoms: _61  and  _62
REMARK   27  A    between atoms: _65  and  _67
REMARK   28  A    between atoms: _67  and  _68
REMARK   29  A    between atoms: _67  and  _70
REMARK   30  A    between atoms: _70  and  _71
REMARK   31  A    between atoms: _74  and  _76
REMARK   32  A    between atoms: _76  and  _77
REMARK   33  A    between atoms: _76  and  _79
REMARK   34  A    between atoms: _79  and  _80
REMARK   35  A    between atoms: _83  and  _85
REMARK   36  A    between atoms: _85  and  _86
REMARK   37  A    between atoms: _85  and  _88
REMARK   38  A    between atoms: _88  and  _89
REMARK   39  A    between atoms: _92  and  _94
REMARK   40  A    between atoms: _94  and  _95
REMARK   41  A    between atoms: _94  and  _97
REMARK   42  A    between atoms: _100  and  _102
REMARK   43  A    between atoms: _102  and  _103
REMARK   44  A    between atoms: _102  and  _105
REMARK   45  A    between atoms: _105  and  _106
REMARK   46  A    between atoms: _109  and  _111
REMARK   47  A    between atoms: _111  and  _112
REMARK   48  A    between atoms: _111  and  _114
REMARK   49  A    between atoms: _114  and  _115
REMARK   50  A    between atoms: _115  and  _116
REMARK   51  A    between atoms: _116  and  _117
REMARK   52  A    between atoms: _117  and  _118
REMARK   53  A    between atoms: _122  and  _124
REMARK   54  A    between atoms: _124  and  _125
REMARK   55  A    between atoms: _124  and  _127
REMARK   56  A    between atoms: _127  and  _128
REMARK   57  A    between atoms: _128  and  _129
REMARK   58  A    between atoms: _131  and  _133
REMARK   59  A    between atoms: _133  and  _134
REMARK   60  A    between atoms: _133  and  _136
REMARK   61  A    between atoms: _136  and  _137
REMARK   62  A    between atoms: _140  and  _142
REMARK   63  A    between atoms: _142  and  _143
REMARK   64  A    between atoms: _145  and  _147
REMARK   65  A    between atoms: _147  and  _148
REMARK   66  A    between atoms: _150  and  _152
REMARK   67  A    between atoms: _152  and  _153
REMARK   68  A    between atoms: _152  and  _155
REMARK   69  A    between atoms: _155  and  _156
REMARK   70  A    between atoms: _159  and  _161
REMARK   71  A    between atoms: _161  and  _162
REMARK   72  A    between atoms: _164  and  _166
REMARK   73  A    between atoms: _166  and  _167
REMARK   74  A    between atoms: _169  and  _171
REMARK   75  A    between atoms: _171  and  _172
REMARK   76  A    between atoms: _171  and  _174
REMARK   77  A    between atoms: _174  and  _175
REMARK   78  A    between atoms: _181  and  _183
REMARK   79  A    between atoms: _183  and  _184
REMARK   80  A    between atoms: _183  and  _186
REMARK   81  A    between atoms: _186  and  _187
REMARK   82  A    between atoms: _190  and  _192
REMARK   83  A    between atoms: _192  and  _193
REMARK   84  A    between atoms: _192  and  _195
REMARK   85  A    between atoms: _198  and  _200
REMARK   86  A    between atoms: _200  and  _201
REMARK   87  A    between atoms: _200  and  _203
REMARK   88  A    between atoms: _203  and  _204
REMARK   89  A    between atoms: _208  and  _209
REMARK   90  A    between atoms: _214  and  _216
REMARK   91  A    between atoms: _216  and  _217
REMARK   92  A    between atoms: _216  and  _219
REMARK   93  A    between atoms: _219  and  _220
REMARK   94  A    between atoms: _224  and  _225
REMARK   95  A    between atoms: _230  and  _232
REMARK   96  A    between atoms: _232  and  _233
REMARK   97  A    between atoms: _232  and  _235
REMARK   98  A    between atoms: _238  and  _240
REMARK   99  A    between atoms: _240  and  _241
REMARK  100  A    between atoms: _240  and  _243
REMARK  101  A    between atoms: _243  and  _244
REMARK  102  A    between atoms: _249  and  _251
REMARK  103  A    between atoms: _251  and  _252
REMARK  104  A    between atoms: _251  and  _254
REMARK  105  A    between atoms: _254  and  _255
REMARK  106  A    between atoms: _258  and  _260
REMARK  107  A    between atoms: _260  and  _261
REMARK  108  A    between atoms: _260  and  _263
REMARK  109  A    between atoms: _263  and  _264
REMARK  110  A    between atoms: _267  and  _269
REMARK  111  A    between atoms: _269  and  _270
REMARK  112  A    between atoms: _272  and  _274
REMARK  113  A    between atoms: _274  and  _275
REMARK  114  A    between atoms: _274  and  _277
REMARK  115  A    between atoms: _277  and  _278
REMARK  116  A    between atoms: _278  and  _279
REMARK  117  A    between atoms: _279  and  _280
REMARK  118  A    between atoms: _289  and  _291
REMARK  119  A    between atoms: _291  and  _292
REMARK  120  A    between atoms: _291  and  _294
REMARK  121  A    between atoms: _294  and  _295
REMARK  122  A    between atoms: _300  and  _302
REMARK  123  A    between atoms: _302  and  _303
REMARK  124  A    between atoms: _302  and  _305
REMARK  125  A    between atoms: _305  and  _306
REMARK  126  A    between atoms: _306  and  _307
REMARK  127  A    between atoms: _307  and  _308
REMARK  128  A    between atoms: _317  and  _319
REMARK  129  A    between atoms: _319  and  _320
REMARK  130  A    between atoms: _319  and  _322
REMARK  131  A    between atoms: _322  and  _323
REMARK  132  A    between atoms: _326  and  _328
REMARK  133  A    between atoms: _328  and  _329
REMARK  134  A    between atoms: _328  and  _331
REMARK  135  A    between atoms: _331  and  _332
REMARK  136  A    between atoms: _335  and  _337
REMARK  137  A    between atoms: _337  and  _338
REMARK  138  A    between atoms: _337  and  _340
REMARK  139  A    between atoms: _340  and  _341
REMARK  140  A    between atoms: _344  and  _346
REMARK  141  A    between atoms: _346  and  _347
REMARK  142  A    between atoms: _346  and  _349
REMARK  143  A    between atoms: _349  and  _350
REMARK  144  A    between atoms: _353  and  _355
REMARK  145  A    between atoms: _355  and  _356
REMARK  146  A    between atoms: _355  and  _358
REMARK  147  A    between atoms: _358  and  _359
REMARK  148  A    between atoms: _362  and  _364
REMARK  149  A    between atoms: _364  and  _365
REMARK  150  A    between atoms: _367  and  _369
REMARK  151  A    between atoms: _369  and  _370
REMARK  152  A    between atoms: _373  and  _375
REMARK  153  A    between atoms: _375  and  _376
REMARK  154  A    between atoms: _375  and  _378
REMARK  155  A    between atoms: _378  and  _379
REMARK  156  A    between atoms: _382  and  _384
REMARK  157  A    between atoms: _384  and  _385
REMARK  158  A    between atoms: _384  and  _387
REMARK  159  A    between atoms: _387  and  _388
REMARK  160  A    between atoms: _391  and  _393
REMARK  161  A    between atoms: _393  and  _394
REMARK  162  A    between atoms: _393  and  _396
REMARK  163  A    between atoms: _396  and  _397
REMARK  164  A    between atoms: _400  and  _402
REMARK  165  A    between atoms: _402  and  _403
REMARK  166  A    between atoms: _402  and  _405
REMARK  167  A    between atoms: _408  and  _410
REMARK  168  A    between atoms: _410  and  _411
REMARK  169  A    between atoms: _410  and  _413
REMARK  170  A    between atoms: _413  and  _414
REMARK  171  A    between atoms: _414  and  _415
REMARK  172  A    between atoms: _415  and  _416
REMARK  173  A    between atoms: _416  and  _417
REMARK  174  A    between atoms: _421  and  _423
REMARK  175  A    between atoms: _423  and  _424
REMARK  176  A    between atoms: _423  and  _426
REMARK  177  A    between atoms: _426  and  _427
REMARK  178  A    between atoms: _427  and  _428
REMARK  179  A    between atoms: _430  and  _432
REMARK  180  A    between atoms: _432  and  _433
REMARK  181  A    between atoms: _432  and  _435
REMARK  182  A    between atoms: _435  and  _436
REMARK  183  A    between atoms: _439  and  _441
REMARK  184  A    between atoms: _441  and  _442
REMARK  185  A    between atoms: _444  and  _446
REMARK  186  A    between atoms: _446  and  _447
REMARK  187  A    between atoms: _449  and  _451
REMARK  188  A    between atoms: _451  and  _452
REMARK  189  A    between atoms: _451  and  _454
REMARK  190  A    between atoms: _454  and  _455
REMARK  191  A    between atoms: _458  and  _460
REMARK  192  A    between atoms: _460  and  _461
REMARK  193  A    between atoms: _463  and  _465
REMARK  194  A    between atoms: _465  and  _466
REMARK  195  A    between atoms: _468  and  _470
REMARK  196  A    between atoms: _470  and  _471
REMARK  197  A    between atoms: _470  and  _473
REMARK  198  A    between atoms: _473  and  _474
REMARK  199  A    between atoms: _480  and  _482
REMARK  200  A    between atoms: _482  and  _483
REMARK  201  A    between atoms: _482  and  _485
REMARK  202  A    between atoms: _485  and  _486
REMARK  203  A    between atoms: _489  and  _491
REMARK  204  A    between atoms: _491  and  _492
REMARK  205  A    between atoms: _491  and  _494
REMARK  206  A    between atoms: _497  and  _499
REMARK  207  A    between atoms: _499  and  _500
REMARK  208  A    between atoms: _499  and  _502
REMARK  209  A    between atoms: _502  and  _503
REMARK  210  A    between atoms: _506  and  _508
REMARK  211  A    between atoms: _508  and  _509
REMARK  212  A    between atoms: _508  and  _511
REMARK  213  A    between atoms: _511  and  _512
REMARK  214  A    between atoms: _516  and  _517
REMARK  215  A    between atoms: _522  and  _524
REMARK  216  A    between atoms: _524  and  _525
REMARK  217  A    between atoms: _524  and  _527
REMARK  218  A    between atoms: _530  and  _532
REMARK  219  A    between atoms: _532  and  _533
REMARK  220  A    between atoms: _532  and  _535
REMARK  221  A    between atoms: _535  and  _536
REMARK  222  A    between atoms: _541  and  _543
REMARK  223  A    between atoms: _543  and  _544
REMARK  224  A    between atoms: _543  and  _546
REMARK  225  A    between atoms: _546  and  _547
REMARK  226  A    between atoms: _550  and  _552
REMARK  227  A    between atoms: _552  and  _553
REMARK  228  A    between atoms: _552  and  _555
REMARK  229  A    between atoms: _555  and  _556
REMARK  230  A    between atoms: _559  and  _561
REMARK  231  A    between atoms: _561  and  _562
REMARK  232  A    between atoms: _564  and  _566
REMARK  233  A    between atoms: _566  and  _567
REMARK  234  A    between atoms: _566  and  _569
REMARK  235  A    between atoms: _569  and  _570
REMARK  236  A    between atoms: _570  and  _571
REMARK  237  A    between atoms: _571  and  _572
REMARK  238  A    between atoms: _581  and  _583
REMARK  239  A    between atoms: _583  and  _584
REMARK  240  A    between atoms: _583  and  _586
REMARK  241  A    between atoms: _586  and  _587
REMARK                            x       y       z     vdW  Elec       q    Type
REMARK                         _______ _______ _______ _____ _____    ______ ____
ROOT
ATOM      1  O   HOH     1       0.847 -16.658 -14.982  0.00  0.00    +0.000 OA
ENDROOT
TORSDOF 0
REMARK  Name = ../refined-set-2016/2pk6/2pk6_pocket.pdb
REMARK  241 active torsions:
REMARK  status: ('A' for Active; 'I' for Inactive)
REMARK    1  A    between atoms: _1  and  _3
REMARK    2  A    between atoms: _3  and  _4
REMARK    3  A    between atoms: _3  and  _6
REMARK    4  A    between atoms: _6  and  _7
REMARK    5  A    between atoms: _7  and  _8
REMARK    6  A    between atoms: _8  and  _9
REMARK    7  A    between atoms: _18  and  _20
REMARK    8  A    between atoms: _20  and  _21
REMARK    9  A    between atoms: _20  and  _23
REMARK   10  A    between atoms: _23  and  _24
REMARK   11  A    between atoms: _27  and  _29
REMARK   12  A    between atoms: _29  and  _30
REMARK   13  A    between atoms: _29  and  _32
REMARK   14  A    between atoms: _32  and  _33
REMARK   15  A    between atoms: _36  and  _38
REMARK   16  A    between atoms: _38  and  _39
REMARK   17  A    between atoms: _38  and  _41
REMARK   18  A    between atoms: _41  and  _42
REMARK   19  A    between atoms: _45  and  _47
REMARK   20  A    between atoms: _47  and  _48
REMARK   21  A    between atoms: _47  and  _50
REMARK   22  A    between atoms: _50  and  _51
REMARK   23  A    between atoms: _54  and  _56
REMARK   24  A    between atoms: _56  and  _57
REMARK   25  A    between atoms: _59  and  _61
REMARK   26  A    between atoms: _61  and  _62
REMARK   27  A    between atoms: _65  and  _67
REMARK   28  A    between atoms: _67  and  _68
REMARK   29  A    between atoms: _67  and  _70
REMARK   30  A    between atoms: _70  and  _71
REMARK   31  A    between atoms: _74  and  _76
REMARK   32  A    between atoms: _76  and  _77
REMARK   33  A    between atoms: _76  and  _79
REMARK   34  A    between atoms: _79  and  _80
REMARK   35  A    between atoms: _83  and  _85
REMARK   36  A    between atoms: _85  and  _86
REMARK   37  A    between atoms: _85  and  _88
REMARK   38  A    between atoms: _88  and  _89
REMARK   39  A    between atoms: _92  and  _94
REMARK   40  A    between atoms: _94  and  _95
REMARK   41  A    between atoms: _94  and  _97
REMARK   42  A    between atoms: _100  and  _102
REMARK   43  A    between atoms: _102  and  _103
REMARK   44  A    between atoms: _102  and  _105
REMARK   45  A    between atoms: _105  and  _106
REMARK   46  A    between atoms: _109  and  _111
REMARK   47  A    between atoms: _111  and  _112
REMARK   48  A    between atoms: _111  and  _114
REMARK   49  A    between atoms: _114  and  _115
REMARK   50  A    between atoms: _115  and  _116
REMARK   51  A    between atoms: _116  and  _117
REMARK   52  A    between atoms: _117  and  _118
REMARK   53  A    between atoms: _122  and  _124
REMARK   54  A    between atoms: _124  and  _125
REMARK   55  A    between atoms: _124  and  _127
REMARK   56  A    between atoms: _127  and  _128
REMARK   57  A    between atoms: _128  and  _129
REMARK   58  A    between atoms: _131  and  _133
REMARK   59  A    between atoms: _133  and  _134
REMARK   60  A    between atoms: _133  and  _136
REMARK   61  A    between atoms: _136  and  _137
REMARK   62  A    between atoms: _140  and  _142
REMARK   63  A    between atoms: _142  and  _143
REMARK   64  A    between atoms: _145  and  _147
REMARK   65  A    between atoms: _147  and  _148
REMARK   66  A    between atoms: _150  and  _152
REMARK   67  A    between atoms: _152  and  _153
REMARK   68  A    between atoms: _152  and  _155
REMARK   69  A    between atoms: _155  and  _156
REMARK   70  A    between atoms: _159  and  _161
REMARK   71  A    between atoms: _161  and  _162
REMARK   72  A    between atoms: _164  and  _166
REMARK   73  A    between atoms: _166  and  _167
REMARK   74  A    between atoms: _169  and  _171
REMARK   75  A    between atoms: _171  and  _172
REMARK   76  A    between atoms: _171  and  _174
REMARK   77  A    between atoms: _174  and  _175
REMARK   78  A    between atoms: _181  and  _183
REMARK   79  A    between atoms: _183  and  _184
REMARK   80  A    between atoms: _183  and  _186
REMARK   81  A    between atoms: _186  and  _187
REMARK   82  A    between atoms: _190  and  _192
REMARK   83  A    between atoms: _192  and  _193
REMARK   84  A    between atoms: _192  and  _195
REMARK   85  A    between atoms: _198  and  _200
REMARK   86  A    between atoms: _200  and  _201
REMARK   87  A    between atoms: _200  and  _203
REMARK   88  A    between atoms: _203  and  _204
REMARK   89  A    between atoms: _208  and  _209
REMARK   90  A    between atoms: _214  and  _216
REMARK   91  A    between atoms: _216  and  _217
REMARK   92  A    between atoms: _216  and  _219
REMARK   93  A    between atoms: _219  and  _220
REMARK   94  A    between atoms: _224  and  _225
REMARK   95  A    between atoms: _230  and  _232
REMARK   96  A    between atoms: _232  and  _233
REMARK   97  A    between atoms: _232  and  _235
REMARK   98  A    between atoms: _238  and  _240
REMARK   99  A    between atoms: _240  and  _241
REMARK  100  A    between atoms: _240  and  _243
REMARK  101  A    between atoms: _243  and  _244
REMARK  102  A    between atoms: _249  and  _251
REMARK  103  A    between atoms: _251  and  _252
REMARK  104  A    between atoms: _251  and  _254
REMARK  105  A    between atoms: _254  and  _255
REMARK  106  A    between atoms: _258  and  _260
REMARK  107  A    between atoms: _260  and  _261
REMARK  108  A    between atoms: _260  and  _263
REMARK  109  A    between atoms: _263  and  _264
REMARK  110  A    between atoms: _267  and  _269
REMARK  111  A    between atoms: _269  and  _270
REMARK  112  A    between atoms: _272  and  _274
REMARK  113  A    between atoms: _274  and  _275
REMARK  114  A    between atoms: _274  and  _277
REMARK  115  A    between atoms: _277  and  _278
REMARK  116  A    between atoms: _278  and  _279
REMARK  117  A    between atoms: _279  and  _280
REMARK  118  A    between atoms: _289  and  _291
REMARK  119  A    between atoms: _291  and  _292
REMARK  120  A    between atoms: _291  and  _294
REMARK  121  A    between atoms: _294  and  _295
REMARK  122  A    between atoms: _300  and  _302
REMARK  123  A    between atoms: _302  and  _303
REMARK  124  A    between atoms: _302  and  _305
REMARK  125  A    between atoms: _305  and  _306
REMARK  126  A    between atoms: _306  and  _307
REMARK  127  A    between atoms: _307  and  _308
REMARK  128  A    between atoms: _317  and  _319
REMARK  129  A    between atoms: _319  and  _320
REMARK  130  A    between atoms: _319  and  _322
REMARK  131  A    between atoms: _322  and  _323
REMARK  132  A    between atoms: _326  and  _328
REMARK  133  A    between atoms: _328  and  _329
REMARK  134  A    between atoms: _328  and  _331
REMARK  135  A    between atoms: _331  and  _332
REMARK  136  A    between atoms: _335  and  _337
REMARK  137  A    between atoms: _337  and  _338
REMARK  138  A    between atoms: _337  and  _340
REMARK  139  A    between atoms: _340  and  _341
REMARK  140  A    between atoms: _344  and  _346
REMARK  141  A    between atoms: _346  and  _347
REMARK  142  A    between atoms: _346  and  _349
REMARK  143  A    between atoms: _349  and  _350
REMARK  144  A    between atoms: _353  and  _355
REMARK  145  A    between atoms: _355  and  _356
REMARK  146  A    between atoms: _355  and  _358
REMARK  147  A    between atoms: _358  and  _359
REMARK  148  A    between atoms: _362  and  _364
REMARK  149  A    between atoms: _364  and  _365
REMARK  150  A    between atoms: _367  and  _369
REMARK  151  A    between atoms: _369  and  _370
REMARK  152  A    between atoms: _373  and  _375
REMARK  153  A    between atoms: _375  and  _376
REMARK  154  A    between atoms: _375  and  _378
REMARK  155  A    between atoms: _378  and  _379
REMARK  156  A    between atoms: _382  and  _384
REMARK  157  A    between atoms: _384  and  _385
REMARK  158  A    between atoms: _384  and  _387
REMARK  159  A    between atoms: _387  and  _388
REMARK  160  A    between atoms: _391  and  _393
REMARK  161  A    between atoms: _393  and  _394
REMARK  162  A    between atoms: _393  and  _396
REMARK  163  A    between atoms: _396  and  _397
REMARK  164  A    between atoms: _400  and  _402
REMARK  165  A    between atoms: _402  and  _403
REMARK  166  A    between atoms: _402  and  _405
REMARK  167  A    between atoms: _408  and  _410
REMARK  168  A    between atoms: _410  and  _411
REMARK  169  A    between atoms: _410  and  _413
REMARK  170  A    between atoms: _413  and  _414
REMARK  171  A    between atoms: _414  and  _415
REMARK  172  A    between atoms: _415  and  _416
REMARK  173  A    between atoms: _416  and  _417
REMARK  174  A    between atoms: _421  and  _423
REMARK  175  A    between atoms: _423  and  _424
REMARK  176  A    between atoms: _423  and  _426
REMARK  177  A    between atoms: _426  and  _427
REMARK  178  A    between atoms: _427  and  _428
REMARK  179  A    between atoms: _430  and  _432
REMARK  180  A    between atoms: _432  and  _433
REMARK  181  A    between atoms: _432  and  _435
REMARK  182  A    between atoms: _435  and  _436
REMARK  183  A    between atoms: _439  and  _441
REMARK  184  A    between atoms: _441  and  _442
REMARK  185  A    between atoms: _444  and  _446
REMARK  186  A    between atoms: _446  and  _447
REMARK  187  A    between atoms: _449  and  _451
REMARK  188  A    between atoms: _451  and  _452
REMARK  189  A    between atoms: _451  and  _454
REMARK  190  A    between atoms: _454  and  _455
REMARK  191  A    between atoms: _458  and  _460
REMARK  192  A    between atoms: _460  and  _461
REMARK  193  A    between atoms: _463  and  _465
REMARK  194  A    between atoms: _465  and  _466
REMARK  195  A    between atoms: _468  and  _470
REMARK  196  A    between atoms: _470  and  _471
REMARK  197  A    between atoms: _470  and  _473
REMARK  198  A    between atoms: _473  and  _474
REMARK  199  A    between atoms: _480  and  _482
REMARK  200  A    between atoms: _482  and  _483
REMARK  201  A    between atoms: _482  and  _485
REMARK  202  A    between atoms: _485  and  _486
REMARK  203  A    between atoms: _489  and  _491
REMARK  204  A    between atoms: _491  and  _492
REMARK  205  A    between atoms: _491  and  _494
REMARK  206  A    between atoms: _497  and  _499
REMARK  207  A    between atoms: _499  and  _500
REMARK  208  A    between atoms: _499  and  _502
REMARK  209  A    between atoms: _502  and  _503
REMARK  210  A    between atoms: _506  and  _508
REMARK  211  A    between atoms: _508  and  _509
REMARK  212  A    between atoms: _508  and  _511
REMARK  213  A    between atoms: _511  and  _512
REMARK  214  A    between atoms: _516  and  _517
REMARK  215  A    between atoms: _522  and  _524
REMARK  216  A    between atoms: _524  and  _525
REMARK  217  A    between atoms: _524  and  _527
REMARK  218  A    between atoms: _530  and  _532
REMARK  219  A    between atoms: _532  and  _533
REMARK  220  A    between atoms: _532  and  _535
REMARK  221  A    between atoms: _535  and  _536
REMARK  222  A    between atoms: _541  and  _543
REMARK  223  A    between atoms: _543  and  _544
REMARK  224  A    between atoms: _543  and  _546
REMARK  225  A    between atoms: _546  and  _547
REMARK  226  A    between atoms: _550  and  _552
REMARK  227  A    between atoms: _552  and  _553
REMARK  228  A    between atoms: _552  and  _555
REMARK  229  A    between atoms: _555  and  _556
REMARK  230  A    between atoms: _559  and  _561
REMARK  231  A    between atoms: _561  and  _562
REMARK  232  A    between atoms: _564  and  _566
REMARK  233  A    between atoms: _566  and  _567
REMARK  234  A    between atoms: _566  and  _569
REMARK  235  A    between atoms: _569  and  _570
REMARK  236  A    between atoms: _570  and  _571
REMARK  237  A    between atoms: _571  and  _572
REMARK  238  A    between atoms: _581  and  _583
REMARK  239  A    between atoms: _583  and  _584
REMARK  240  A    between atoms: _583  and  _586
REMARK  241  A    between atoms: _586  and  _587
REMARK                            x       y       z     vdW  Elec       q    Type
REMARK                         _______ _______ _______ _____ _____    ______ ____
ROOT
ATOM      1  O   HOH     1      17.440 -25.151  -6.492  0.00  0.00    +0.000 OA
ENDROOT
TORSDOF 0
REMARK  Name = ../refined-set-2016/2pk6/2pk6_pocket.pdb
REMARK  241 active torsions:
REMARK  status: ('A' for Active; 'I' for Inactive)
REMARK    1  A    between atoms: _1  and  _3
REMARK    2  A    between atoms: _3  and  _4
REMARK    3  A    between atoms: _3  and  _6
REMARK    4  A    between atoms: _6  and  _7
REMARK    5  A    between atoms: _7  and  _8
REMARK    6  A    between atoms: _8  and  _9
REMARK    7  A    between atoms: _18  and  _20
REMARK    8  A    between atoms: _20  and  _21
REMARK    9  A    between atoms: _20  and  _23
REMARK   10  A    between atoms: _23  and  _24
REMARK   11  A    between atoms: _27  and  _29
REMARK   12  A    between atoms: _29  and  _30
REMARK   13  A    between atoms: _29  and  _32
REMARK   14  A    between atoms: _32  and  _33
REMARK   15  A    between atoms: _36  and  _38
REMARK   16  A    between atoms: _38  and  _39
REMARK   17  A    between atoms: _38  and  _41
REMARK   18  A    between atoms: _41  and  _42
REMARK   19  A    between atoms: _45  and  _47
REMARK   20  A    between atoms: _47  and  _48
REMARK   21  A    between atoms: _47  and  _50
REMARK   22  A    between atoms: _50  and  _51
REMARK   23  A    between atoms: _54  and  _56
REMARK   24  A    between atoms: _56  and  _57
REMARK   25  A    between atoms: _59  and  _61
REMARK   26  A    between atoms: _61  and  _62
REMARK   27  A    between atoms: _65  and  _67
REMARK   28  A    between atoms: _67  and  _68
REMARK   29  A    between atoms: _67  and  _70
REMARK   30  A    between atoms: _70  and  _71
REMARK   31  A    between atoms: _74  and  _76
REMARK   32  A    between atoms: _76  and  _77
REMARK   33  A    between atoms: _76  and  _79
REMARK   34  A    between atoms: _79  and  _80
REMARK   35  A    between atoms: _83  and  _85
REMARK   36  A    between atoms: _85  and  _86
REMARK   37  A    between atoms: _85  and  _88
REMARK   38  A    between atoms: _88  and  _89
REMARK   39  A    between atoms: _92  and  _94
REMARK   40  A    between atoms: _94  and  _95
REMARK   41  A    between atoms: _94  and  _97
REMARK   42  A    between atoms: _100  and  _102
REMARK   43  A    between atoms: _102  and  _103
REMARK   44  A    between atoms: _102  and  _105
REMARK   45  A    between atoms: _105  and  _106
REMARK   46  A    between atoms: _109  and  _111
REMARK   47  A    between atoms: _111  and  _112
REMARK   48  A    between atoms: _111  and  _114
REMARK   49  A    between atoms: _114  and  _115
REMARK   50  A    between atoms: _115  and  _116
REMARK   51  A    between atoms: _116  and  _117
REMARK   52  A    between atoms: _117  and  _118
REMARK   53  A    between atoms: _122  and  _124
REMARK   54  A    between atoms: _124  and  _125
REMARK   55  A    between atoms: _124  and  _127
REMARK   56  A    between atoms: _127  and  _128
REMARK   57  A    between atoms: _128  and  _129
REMARK   58  A    between atoms: _131  and  _133
REMARK   59  A    between atoms: _133  and  _134
REMARK   60  A    between atoms: _133  and  _136
REMARK   61  A    between atoms: _136  and  _137
REMARK   62  A    between atoms: _140  and  _142
REMARK   63  A    between atoms: _142  and  _143
REMARK   64  A    between atoms: _145  and  _147
REMARK   65  A    between atoms: _147  and  _148
REMARK   66  A    between atoms: _150  and  _152
REMARK   67  A    between atoms: _152  and  _153
REMARK   68  A    between atoms: _152  and  _155
REMARK   69  A    between atoms: _155  and  _156
REMARK   70  A    between atoms: _159  and  _161
REMARK   71  A    between atoms: _161  and  _162
REMARK   72  A    between atoms: _164  and  _166
REMARK   73  A    between atoms: _166  and  _167
REMARK   74  A    between atoms: _169  and  _171
REMARK   75  A    between atoms: _171  and  _172
REMARK   76  A    between atoms: _171  and  _174
REMARK   77  A    between atoms: _174  and  _175
REMARK   78  A    between atoms: _181  and  _183
REMARK   79  A    between atoms: _183  and  _184
REMARK   80  A    between atoms: _183  and  _186
REMARK   81  A    between atoms: _186  and  _187
REMARK   82  A    between atoms: _190  and  _192
REMARK   83  A    between atoms: _192  and  _193
REMARK   84  A    between atoms: _192  and  _195
REMARK   85  A    between atoms: _198  and  _200
REMARK   86  A    between atoms: _200  and  _201
REMARK   87  A    between atoms: _200  and  _203
REMARK   88  A    between atoms: _203  and  _204
REMARK   89  A    between atoms: _208  and  _209
REMARK   90  A    between atoms: _214  and  _216
REMARK   91  A    between atoms: _216  and  _217
REMARK   92  A    between atoms: _216  and  _219
REMARK   93  A    between atoms: _219  and  _220
REMARK   94  A    between atoms: _224  and  _225
REMARK   95  A    between atoms: _230  and  _232
REMARK   96  A    between atoms: _232  and  _233
REMARK   97  A    between atoms: _232  and  _235
REMARK   98  A    between atoms: _238  and  _240
REMARK   99  A    between atoms: _240  and  _241
REMARK  100  A    between atoms: _240  and  _243
REMARK  101  A    between atoms: _243  and  _244
REMARK  102  A    between atoms: _249  and  _251
REMARK  103  A    between atoms: _251  and  _252
REMARK  104  A    between atoms: _251  and  _254
REMARK  105  A    between atoms: _254  and  _255
REMARK  106  A    between atoms: _258  and  _260
REMARK  107  A    between atoms: _260  and  _261
REMARK  108  A    between atoms: _260  and  _263
REMARK  109  A    between atoms: _263  and  _264
REMARK  110  A    between atoms: _267  and  _269
REMARK  111  A    between atoms: _269  and  _270
REMARK  112  A    between atoms: _272  and  _274
REMARK  113  A    between atoms: _274  and  _275
REMARK  114  A    between atoms: _274  and  _277
REMARK  115  A    between atoms: _277  and  _278
REMARK  116  A    between atoms: _278  and  _279
REMARK  117  A    between atoms: _279  and  _280
REMARK  118  A    between atoms: _289  and  _291
REMARK  119  A    between atoms: _291  and  _292
REMARK  120  A    between atoms: _291  and  _294
REMARK  121  A    between atoms: _294  and  _295
REMARK  122  A    between atoms: _300  and  _302
REMARK  123  A    between atoms: _302  and  _303
REMARK  124  A    between atoms: _302  and  _305
REMARK  125  A    between atoms: _305  and  _306
REMARK  126  A    between atoms: _306  and  _307
REMARK  127  A    between atoms: _307  and  _308
REMARK  128  A    between atoms: _317  and  _319
REMARK  129  A    between atoms: _319  and  _320
REMARK  130  A    between atoms: _319  and  _322
REMARK  131  A    between atoms: _322  and  _323
REMARK  132  A    between atoms: _326  and  _328
REMARK  133  A    between atoms: _328  and  _329
REMARK  134  A    between atoms: _328  and  _331
REMARK  135  A    between atoms: _331  and  _332
REMARK  136  A    between atoms: _335  and  _337
REMARK  137  A    between atoms: _337  and  _338
REMARK  138  A    between atoms: _337  and  _340
REMARK  139  A    between atoms: _340  and  _341
REMARK  140  A    between atoms: _344  and  _346
REMARK  141  A    between atoms: _346  and  _347
REMARK  142  A    between atoms: _346  and  _349
REMARK  143  A    between atoms: _349  and  _350
REMARK  144  A    between atoms: _353  and  _355
REMARK  145  A    between atoms: _355  and  _356
REMARK  146  A    between atoms: _355  and  _358
REMARK  147  A    between atoms: _358  and  _359
REMARK  148  A    between atoms: _362  and  _364
REMARK  149  A    between atoms: _364  and  _365
REMARK  150  A    between atoms: _367  and  _369
REMARK  151  A    between atoms: _369  and  _370
REMARK  152  A    between atoms: _373  and  _375
REMARK  153  A    between atoms: _375  and  _376
REMARK  154  A    between atoms: _375  and  _378
REMARK  155  A    between atoms: _378  and  _379
REMARK  156  A    between atoms: _382  and  _384
REMARK  157  A    between atoms: _384  and  _385
REMARK  158  A    between atoms: _384  and  _387
REMARK  159  A    between atoms: _387  and  _388
REMARK  160  A    between atoms: _391  and  _393
REMARK  161  A    between atoms: _393  and  _394
REMARK  162  A    between atoms: _393  and  _396
REMARK  163  A    between atoms: _396  and  _397
REMARK  164  A    between atoms: _400  and  _402
REMARK  165  A    between atoms: _402  and  _403
REMARK  166  A    between atoms: _402  and  _405
REMARK  167  A    between atoms: _408  and  _410
REMARK  168  A    between atoms: _410  and  _411
REMARK  169  A    between atoms: _410  and  _413
REMARK  170  A    between atoms: _413  and  _414
REMARK  171  A    between atoms: _414  and  _415
REMARK  172  A    between atoms: _415  and  _416
REMARK  173  A    between atoms: _416  and  _417
REMARK  174  A    between atoms: _421  and  _423
REMARK  175  A    between atoms: _423  and  _424
REMARK  176  A    between atoms: _423  and  _426
REMARK  177  A    between atoms: _426  and  _427
REMARK  178  A    between atoms: _427  and  _428
REMARK  179  A    between atoms: _430  and  _432
REMARK  180  A    between atoms: _432  and  _433
REMARK  181  A    between atoms: _432  and  _435
REMARK  182  A    between atoms: _435  and  _436
REMARK  183  A    between atoms: _439  and  _441
REMARK  184  A    between atoms: _441  and  _442
REMARK  185  A    between atoms: _444  and  _446
REMARK  186  A    between atoms: _446  and  _447
REMARK  187  A    between atoms: _449  and  _451
REMARK  188  A    between atoms: _451  and  _452
REMARK  189  A    between atoms: _451  and  _454
REMARK  190  A    between atoms: _454  and  _455
REMARK  191  A    between atoms: _458  and  _460
REMARK  192  A    between atoms: _460  and  _461
REMARK  193  A    between atoms: _463  and  _465
REMARK  194  A    between atoms: _465  and  _466
REMARK  195  A    between atoms: _468  and  _470
REMARK  196  A    between atoms: _470  and  _471
REMARK  197  A    between atoms: _470  and  _473
REMARK  198  A    between atoms: _473  and  _474
REMARK  199  A    between atoms: _480  and  _482
REMARK  200  A    between atoms: _482  and  _483
REMARK  201  A    between atoms: _482  and  _485
REMARK  202  A    between atoms: _485  and  _486
REMARK  203  A    between atoms: _489  and  _491
REMARK  204  A    between atoms: _491  and  _492
REMARK  205  A    between atoms: _491  and  _494
REMARK  206  A    between atoms: _497  and  _499
REMARK  207  A    between atoms: _499  and  _500
REMARK  208  A    between atoms: _499  and  _502
REMARK  209  A    between atoms: _502  and  _503
REMARK  210  A    between atoms: _506  and  _508
REMARK  211  A    between atoms: _508  and  _509
REMARK  212  A    between atoms: _508  and  _511
REMARK  213  A    between atoms: _511  and  _512
REMARK  214  A    between atoms: _516  and  _517
REMARK  215  A    between atoms: _522  and  _524
REMARK  216  A    between atoms: _524  and  _525
REMARK  217  A    between atoms: _524  and  _527
REMARK  218  A    between atoms: _530  and  _532
REMARK  219  A    between atoms: _532  and  _533
REMARK  220  A    between atoms: _532  and  _535
REMARK  221  A    between atoms: _535  and  _536
REMARK  222  A    between atoms: _541  and  _543
REMARK  223  A    between atoms: _543  and  _544
REMARK  224  A    between atoms: _543  and  _546
REMARK  225  A    between atoms: _546  and  _547
REMARK  226  A    between atoms: _550  and  _552
REMARK  227  A    between atoms: _552  and  _553
REMARK  228  A    between atoms: _552  and  _555
REMARK  229  A    between atoms: _555  and  _556
REMARK  230  A    between atoms: _559  and  _561
REMARK  231  A    between atoms: _561  and  _562
REMARK  232  A    between atoms: _564  and  _566
REMARK  233  A    between atoms: _566  and  _567
REMARK  234  A    between atoms: _566  and  _569
REMARK  235  A    between atoms: _569  and  _570
REMARK  236  A    between atoms: _570  and  _571
REMARK  237  A    between atoms: _571  and  _572
REMARK  238  A    between atoms: _581  and  _583
REMARK  239  A    between atoms: _583  and  _584
REMARK  240  A    between atoms: _583  and  _586
REMARK  241  A    between atoms: _586  and  _587
REMARK                            x       y       z     vdW  Elec       q    Type
REMARK                         _______ _______ _______ _____ _____    ______ ____
ROOT
ATOM      1  O   HOH     1      23.128 -29.463 -16.142  0.00  0.00    +0.000 OA
ENDROOT
TORSDOF 0
REMARK  Name = ../refined-set-2016/2pk6/2pk6_pocket.pdb
REMARK  241 active torsions:
REMARK  status: ('A' for Active; 'I' for Inactive)
REMARK    1  A    between atoms: _1  and  _3
REMARK    2  A    between atoms: _3  and  _4
REMARK    3  A    between atoms: _3  and  _6
REMARK    4  A    between atoms: _6  and  _7
REMARK    5  A    between atoms: _7  and  _8
REMARK    6  A    between atoms: _8  and  _9
REMARK    7  A    between atoms: _18  and  _20
REMARK    8  A    between atoms: _20  and  _21
REMARK    9  A    between atoms: _20  and  _23
REMARK   10  A    between atoms: _23  and  _24
REMARK   11  A    between atoms: _27  and  _29
REMARK   12  A    between atoms: _29  and  _30
REMARK   13  A    between atoms: _29  and  _32
REMARK   14  A    between atoms: _32  and  _33
REMARK   15  A    between atoms: _36  and  _38
REMARK   16  A    between atoms: _38  and  _39
REMARK   17  A    between atoms: _38  and  _41
REMARK   18  A    between atoms: _41  and  _42
REMARK   19  A    between atoms: _45  and  _47
REMARK   20  A    between atoms: _47  and  _48
REMARK   21  A    between atoms: _47  and  _50
REMARK   22  A    between atoms: _50  and  _51
REMARK   23  A    between atoms: _54  and  _56
REMARK   24  A    between atoms: _56  and  _57
REMARK   25  A    between atoms: _59  and  _61
REMARK   26  A    between atoms: _61  and  _62
REMARK   27  A    between atoms: _65  and  _67
REMARK   28  A    between atoms: _67  and  _68
REMARK   29  A    between atoms: _67  and  _70
REMARK   30  A    between atoms: _70  and  _71
REMARK   31  A    between atoms: _74  and  _76
REMARK   32  A    between atoms: _76  and  _77
REMARK   33  A    between atoms: _76  and  _79
REMARK   34  A    between atoms: _79  and  _80
REMARK   35  A    between atoms: _83  and  _85
REMARK   36  A    between atoms: _85  and  _86
REMARK   37  A    between atoms: _85  and  _88
REMARK   38  A    between atoms: _88  and  _89
REMARK   39  A    between atoms: _92  and  _94
REMARK   40  A    between atoms: _94  and  _95
REMARK   41  A    between atoms: _94  and  _97
REMARK   42  A    between atoms: _100  and  _102
REMARK   43  A    between atoms: _102  and  _103
REMARK   44  A    between atoms: _102  and  _105
REMARK   45  A    between atoms: _105  and  _106
REMARK   46  A    between atoms: _109  and  _111
REMARK   47  A    between atoms: _111  and  _112
REMARK   48  A    between atoms: _111  and  _114
REMARK   49  A    between atoms: _114  and  _115
REMARK   50  A    between atoms: _115  and  _116
REMARK   51  A    between atoms: _116  and  _117
REMARK   52  A    between atoms: _117  and  _118
REMARK   53  A    between atoms: _122  and  _124
REMARK   54  A    between atoms: _124  and  _125
REMARK   55  A    between atoms: _124  and  _127
REMARK   56  A    between atoms: _127  and  _128
REMARK   57  A    between atoms: _128  and  _129
REMARK   58  A    between atoms: _131  and  _133
REMARK   59  A    between atoms: _133  and  _134
REMARK   60  A    between atoms: _133  and  _136
REMARK   61  A    between atoms: _136  and  _137
REMARK   62  A    between atoms: _140  and  _142
REMARK   63  A    between atoms: _142  and  _143
REMARK   64  A    between atoms: _145  and  _147
REMARK   65  A    between atoms: _147  and  _148
REMARK   66  A    between atoms: _150  and  _152
REMARK   67  A    between atoms: _152  and  _153
REMARK   68  A    between atoms: _152  and  _155
REMARK   69  A    between atoms: _155  and  _156
REMARK   70  A    between atoms: _159  and  _161
REMARK   71  A    between atoms: _161  and  _162
REMARK   72  A    between atoms: _164  and  _166
REMARK   73  A    between atoms: _166  and  _167
REMARK   74  A    between atoms: _169  and  _171
REMARK   75  A    between atoms: _171  and  _172
REMARK   76  A    between atoms: _171  and  _174
REMARK   77  A    between atoms: _174  and  _175
REMARK   78  A    between atoms: _181  and  _183
REMARK   79  A    between atoms: _183  and  _184
REMARK   80  A    between atoms: _183  and  _186
REMARK   81  A    between atoms: _186  and  _187
REMARK   82  A    between atoms: _190  and  _192
REMARK   83  A    between atoms: _192  and  _193
REMARK   84  A    between atoms: _192  and  _195
REMARK   85  A    between atoms: _198  and  _200
REMARK   86  A    between atoms: _200  and  _201
REMARK   87  A    between atoms: _200  and  _203
REMARK   88  A    between atoms: _203  and  _204
REMARK   89  A    between atoms: _208  and  _209
REMARK   90  A    between atoms: _214  and  _216
REMARK   91  A    between atoms: _216  and  _217
REMARK   92  A    between atoms: _216  and  _219
REMARK   93  A    between atoms: _219  and  _220
REMARK   94  A    between atoms: _224  and  _225
REMARK   95  A    between atoms: _230  and  _232
REMARK   96  A    between atoms: _232  and  _233
REMARK   97  A    between atoms: _232  and  _235
REMARK   98  A    between atoms: _238  and  _240
REMARK   99  A    between atoms: _240  and  _241
REMARK  100  A    between atoms: _240  and  _243
REMARK  101  A    between atoms: _243  and  _244
REMARK  102  A    between atoms: _249  and  _251
REMARK  103  A    between atoms: _251  and  _252
REMARK  104  A    between atoms: _251  and  _254
REMARK  105  A    between atoms: _254  and  _255
REMARK  106  A    between atoms: _258  and  _260
REMARK  107  A    between atoms: _260  and  _261
REMARK  108  A    between atoms: _260  and  _263
REMARK  109  A    between atoms: _263  and  _264
REMARK  110  A    between atoms: _267  and  _269
REMARK  111  A    between atoms: _269  and  _270
REMARK  112  A    between atoms: _272  and  _274
REMARK  113  A    between atoms: _274  and  _275
REMARK  114  A    between atoms: _274  and  _277
REMARK  115  A    between atoms: _277  and  _278
REMARK  116  A    between atoms: _278  and  _279
REMARK  117  A    between atoms: _279  and  _280
REMARK  118  A    between atoms: _289  and  _291
REMARK  119  A    between atoms: _291  and  _292
REMARK  120  A    between atoms: _291  and  _294
REMARK  121  A    between atoms: _294  and  _295
REMARK  122  A    between atoms: _300  and  _302
REMARK  123  A    between atoms: _302  and  _303
REMARK  124  A    between atoms: _302  and  _305
REMARK  125  A    between atoms: _305  and  _306
REMARK  126  A    between atoms: _306  and  _307
REMARK  127  A    between atoms: _307  and  _308
REMARK  128  A    between atoms: _317  and  _319
REMARK  129  A    between atoms: _319  and  _320
REMARK  130  A    between atoms: _319  and  _322
REMARK  131  A    between atoms: _322  and  _323
REMARK  132  A    between atoms: _326  and  _328
REMARK  133  A    between atoms: _328  and  _329
REMARK  134  A    between atoms: _328  and  _331
REMARK  135  A    between atoms: _331  and  _332
REMARK  136  A    between atoms: _335  and  _337
REMARK  137  A    between atoms: _337  and  _338
REMARK  138  A    between atoms: _337  and  _340
REMARK  139  A    between atoms: _340  and  _341
REMARK  140  A    between atoms: _344  and  _346
REMARK  141  A    between atoms: _346  and  _347
REMARK  142  A    between atoms: _346  and  _349
REMARK  143  A    between atoms: _349  and  _350
REMARK  144  A    between atoms: _353  and  _355
REMARK  145  A    between atoms: _355  and  _356
REMARK  146  A    between atoms: _355  and  _358
REMARK  147  A    between atoms: _358  and  _359
REMARK  148  A    between atoms: _362  and  _364
REMARK  149  A    between atoms: _364  and  _365
REMARK  150  A    between atoms: _367  and  _369
REMARK  151  A    between atoms: _369  and  _370
REMARK  152  A    between atoms: _373  and  _375
REMARK  153  A    between atoms: _375  and  _376
REMARK  154  A    between atoms: _375  and  _378
REMARK  155  A    between atoms: _378  and  _379
REMARK  156  A    between atoms: _382  and  _384
REMARK  157  A    between atoms: _384  and  _385
REMARK  158  A    between atoms: _384  and  _387
REMARK  159  A    between atoms: _387  and  _388
REMARK  160  A    between atoms: _391  and  _393
REMARK  161  A    between atoms: _393  and  _394
REMARK  162  A    between atoms: _393  and  _396
REMARK  163  A    between atoms: _396  and  _397
REMARK  164  A    between atoms: _400  and  _402
REMARK  165  A    between atoms: _402  and  _403
REMARK  166  A    between atoms: _402  and  _405
REMARK  167  A    between atoms: _408  and  _410
REMARK  168  A    between atoms: _410  and  _411
REMARK  169  A    between atoms: _410  and  _413
REMARK  170  A    between atoms: _413  and  _414
REMARK  171  A    between atoms: _414  and  _415
REMARK  172  A    between atoms: _415  and  _416
REMARK  173  A    between atoms: _416  and  _417
REMARK  174  A    between atoms: _421  and  _423
REMARK  175  A    between atoms: _423  and  _424
REMARK  176  A    between atoms: _423  and  _426
REMARK  177  A    between atoms: _426  and  _427
REMARK  178  A    between atoms: _427  and  _428
REMARK  179  A    between atoms: _430  and  _432
REMARK  180  A    between atoms: _432  and  _433
REMARK  181  A    between atoms: _432  and  _435
REMARK  182  A    between atoms: _435  and  _436
REMARK  183  A    between atoms: _439  and  _441
REMARK  184  A    between atoms: _441  and  _442
REMARK  185  A    between atoms: _444  and  _446
REMARK  186  A    between atoms: _446  and  _447
REMARK  187  A    between atoms: _449  and  _451
REMARK  188  A    between atoms: _451  and  _452
REMARK  189  A    between atoms: _451  and  _454
REMARK  190  A    between atoms: _454  and  _455
REMARK  191  A    between atoms: _458  and  _460
REMARK  192  A    between atoms: _460  and  _461
REMARK  193  A    between atoms: _463  and  _465
REMARK  194  A    between atoms: _465  and  _466
REMARK  195  A    between atoms: _468  and  _470
REMARK  196  A    between atoms: _470  and  _471
REMARK  197  A    between atoms: _470  and  _473
REMARK  198  A    between atoms: _473  and  _474
REMARK  199  A    between atoms: _480  and  _482
REMARK  200  A    between atoms: _482  and  _483
REMARK  201  A    between atoms: _482  and  _485
REMARK  202  A    between atoms: _485  and  _486
REMARK  203  A    between atoms: _489  and  _491
REMARK  204  A    between atoms: _491  and  _492
REMARK  205  A    between atoms: _491  and  _494
REMARK  206  A    between atoms: _497  and  _499
REMARK  207  A    between atoms: _499  and  _500
REMARK  208  A    between atoms: _499  and  _502
REMARK  209  A    between atoms: _502  and  _503
REMARK  210  A    between atoms: _506  and  _508
REMARK  211  A    between atoms: _508  and  _509
REMARK  212  A    between atoms: _508  and  _511
REMARK  213  A    between atoms: _511  and  _512
REMARK  214  A    between atoms: _516  and  _517
REMARK  215  A    between atoms: _522  and  _524
REMARK  216  A    between atoms: _524  and  _525
REMARK  217  A    between atoms: _524  and  _527
REMARK  218  A    between atoms: _530  and  _532
REMARK  219  A    between atoms: _532  and  _533
REMARK  220  A    between atoms: _532  and  _535
REMARK  221  A    between atoms: _535  and  _536
REMARK  222  A    between atoms: _541  and  _543
REMARK  223  A    between atoms: _543  and  _544
REMARK  224  A    between atoms: _543  and  _546
REMARK  225  A    between atoms: _546  and  _547
REMARK  226  A    between atoms: _550  and  _552
REMARK  227  A    between atoms: _552  and  _553
REMARK  228  A    between atoms: _552  and  _555
REMARK  229  A    between atoms: _555  and  _556
REMARK  230  A    between atoms: _559  and  _561
REMARK  231  A    between atoms: _561  and  _562
REMARK  232  A    between atoms: _564  and  _566
REMARK  233  A    between atoms: _566  and  _567
REMARK  234  A    between atoms: _566  and  _569
REMARK  235  A    between atoms: _569  and  _570
REMARK  236  A    between atoms: _570  and  _571
REMARK  237  A    between atoms: _571  and  _572
REMARK  238  A    between atoms: _581  and  _583
REMARK  239  A    between atoms: _583  and  _584
REMARK  240  A    between atoms: _583  and  _586
REMARK  241  A    between atoms: _586  and  _587
REMARK                            x       y       z     vdW  Elec       q    Type
REMARK                         _______ _______ _______ _____ _____    ______ ____
ROOT
ATOM      1  O   HOH     1      21.672 -22.637  -7.673  0.00  0.00    +0.000 OA
ENDROOT
TORSDOF 0
REMARK  Name = ../refined-set-2016/2pk6/2pk6_pocket.pdb
REMARK  241 active torsions:
REMARK  status: ('A' for Active; 'I' for Inactive)
REMARK    1  A    between atoms: _1  and  _3
REMARK    2  A    between atoms: _3  and  _4
REMARK    3  A    between atoms: _3  and  _6
REMARK    4  A    between atoms: _6  and  _7
REMARK    5  A    between atoms: _7  and  _8
REMARK    6  A    between atoms: _8  and  _9
REMARK    7  A    between atoms: _18  and  _20
REMARK    8  A    between atoms: _20  and  _21
REMARK    9  A    between atoms: _20  and  _23
REMARK   10  A    between atoms: _23  and  _24
REMARK   11  A    between atoms: _27  and  _29
REMARK   12  A    between atoms: _29  and  _30
REMARK   13  A    between atoms: _29  and  _32
REMARK   14  A    between atoms: _32  and  _33
REMARK   15  A    between atoms: _36  and  _38
REMARK   16  A    between atoms: _38  and  _39
REMARK   17  A    between atoms: _38  and  _41
REMARK   18  A    between atoms: _41  and  _42
REMARK   19  A    between atoms: _45  and  _47
REMARK   20  A    between atoms: _47  and  _48
REMARK   21  A    between atoms: _47  and  _50
REMARK   22  A    between atoms: _50  and  _51
REMARK   23  A    between atoms: _54  and  _56
REMARK   24  A    between atoms: _56  and  _57
REMARK   25  A    between atoms: _59  and  _61
REMARK   26  A    between atoms: _61  and  _62
REMARK   27  A    between atoms: _65  and  _67
REMARK   28  A    between atoms: _67  and  _68
REMARK   29  A    between atoms: _67  and  _70
REMARK   30  A    between atoms: _70  and  _71
REMARK   31  A    between atoms: _74  and  _76
REMARK   32  A    between atoms: _76  and  _77
REMARK   33  A    between atoms: _76  and  _79
REMARK   34  A    between atoms: _79  and  _80
REMARK   35  A    between atoms: _83  and  _85
REMARK   36  A    between atoms: _85  and  _86
REMARK   37  A    between atoms: _85  and  _88
REMARK   38  A    between atoms: _88  and  _89
REMARK   39  A    between atoms: _92  and  _94
REMARK   40  A    between atoms: _94  and  _95
REMARK   41  A    between atoms: _94  and  _97
REMARK   42  A    between atoms: _100  and  _102
REMARK   43  A    between atoms: _102  and  _103
REMARK   44  A    between atoms: _102  and  _105
REMARK   45  A    between atoms: _105  and  _106
REMARK   46  A    between atoms: _109  and  _111
REMARK   47  A    between atoms: _111  and  _112
REMARK   48  A    between atoms: _111  and  _114
REMARK   49  A    between atoms: _114  and  _115
REMARK   50  A    between atoms: _115  and  _116
REMARK   51  A    between atoms: _116  and  _117
REMARK   52  A    between atoms: _117  and  _118
REMARK   53  A    between atoms: _122  and  _124
REMARK   54  A    between atoms: _124  and  _125
REMARK   55  A    between atoms: _124  and  _127
REMARK   56  A    between atoms: _127  and  _128
REMARK   57  A    between atoms: _128  and  _129
REMARK   58  A    between atoms: _131  and  _133
REMARK   59  A    between atoms: _133  and  _134
REMARK   60  A    between atoms: _133  and  _136
REMARK   61  A    between atoms: _136  and  _137
REMARK   62  A    between atoms: _140  and  _142
REMARK   63  A    between atoms: _142  and  _143
REMARK   64  A    between atoms: _145  and  _147
REMARK   65  A    between atoms: _147  and  _148
REMARK   66  A    between atoms: _150  and  _152
REMARK   67  A    between atoms: _152  and  _153
REMARK   68  A    between atoms: _152  and  _155
REMARK   69  A    between atoms: _155  and  _156
REMARK   70  A    between atoms: _159  and  _161
REMARK   71  A    between atoms: _161  and  _162
REMARK   72  A    between atoms: _164  and  _166
REMARK   73  A    between atoms: _166  and  _167
REMARK   74  A    between atoms: _169  and  _171
REMARK   75  A    between atoms: _171  and  _172
REMARK   76  A    between atoms: _171  and  _174
REMARK   77  A    between atoms: _174  and  _175
REMARK   78  A    between atoms: _181  and  _183
REMARK   79  A    between atoms: _183  and  _184
REMARK   80  A    between atoms: _183  and  _186
REMARK   81  A    between atoms: _186  and  _187
REMARK   82  A    between atoms: _190  and  _192
REMARK   83  A    between atoms: _192  and  _193
REMARK   84  A    between atoms: _192  and  _195
REMARK   85  A    between atoms: _198  and  _200
REMARK   86  A    between atoms: _200  and  _201
REMARK   87  A    between atoms: _200  and  _203
REMARK   88  A    between atoms: _203  and  _204
REMARK   89  A    between atoms: _208  and  _209
REMARK   90  A    between atoms: _214  and  _216
REMARK   91  A    between atoms: _216  and  _217
REMARK   92  A    between atoms: _216  and  _219
REMARK   93  A    between atoms: _219  and  _220
REMARK   94  A    between atoms: _224  and  _225
REMARK   95  A    between atoms: _230  and  _232
REMARK   96  A    between atoms: _232  and  _233
REMARK   97  A    between atoms: _232  and  _235
REMARK   98  A    between atoms: _238  and  _240
REMARK   99  A    between atoms: _240  and  _241
REMARK  100  A    between atoms: _240  and  _243
REMARK  101  A    between atoms: _243  and  _244
REMARK  102  A    between atoms: _249  and  _251
REMARK  103  A    between atoms: _251  and  _252
REMARK  104  A    between atoms: _251  and  _254
REMARK  105  A    between atoms: _254  and  _255
REMARK  106  A    between atoms: _258  and  _260
REMARK  107  A    between atoms: _260  and  _261
REMARK  108  A    between atoms: _260  and  _263
REMARK  109  A    between atoms: _263  and  _264
REMARK  110  A    between atoms: _267  and  _269
REMARK  111  A    between atoms: _269  and  _270
REMARK  112  A    between atoms: _272  and  _274
REMARK  113  A    between atoms: _274  and  _275
REMARK  114  A    between atoms: _274  and  _277
REMARK  115  A    between atoms: _277  and  _278
REMARK  116  A    between atoms: _278  and  _279
REMARK  117  A    between atoms: _279  and  _280
REMARK  118  A    between atoms: _289  and  _291
REMARK  119  A    between atoms: _291  and  _292
REMARK  120  A    between atoms: _291  and  _294
REMARK  121  A    between atoms: _294  and  _295
REMARK  122  A    between atoms: _300  and  _302
REMARK  123  A    between atoms: _302  and  _303
REMARK  124  A    between atoms: _302  and  _305
REMARK  125  A    between atoms: _305  and  _306
REMARK  126  A    between atoms: _306  and  _307
REMARK  127  A    between atoms: _307  and  _308
REMARK  128  A    between atoms: _317  and  _319
REMARK  129  A    between atoms: _319  and  _320
REMARK  130  A    between atoms: _319  and  _322
REMARK  131  A    between atoms: _322  and  _323
REMARK  132  A    between atoms: _326  and  _328
REMARK  133  A    between atoms: _328  and  _329
REMARK  134  A    between atoms: _328  and  _331
REMARK  135  A    between atoms: _331  and  _332
REMARK  136  A    between atoms: _335  and  _337
REMARK  137  A    between atoms: _337  and  _338
REMARK  138  A    between atoms: _337  and  _340
REMARK  139  A    between atoms: _340  and  _341
REMARK  140  A    between atoms: _344  and  _346
REMARK  141  A    between atoms: _346  and  _347
REMARK  142  A    between atoms: _346  and  _349
REMARK  143  A    between atoms: _349  and  _350
REMARK  144  A    between atoms: _353  and  _355
REMARK  145  A    between atoms: _355  and  _356
REMARK  146  A    between atoms: _355  and  _358
REMARK  147  A    between atoms: _358  and  _359
REMARK  148  A    between atoms: _362  and  _364
REMARK  149  A    between atoms: _364  and  _365
REMARK  150  A    between atoms: _367  and  _369
REMARK  151  A    between atoms: _369  and  _370
REMARK  152  A    between atoms: _373  and  _375
REMARK  153  A    between atoms: _375  and  _376
REMARK  154  A    between atoms: _375  and  _378
REMARK  155  A    between atoms: _378  and  _379
REMARK  156  A    between atoms: _382  and  _384
REMARK  157  A    between atoms: _384  and  _385
REMARK  158  A    between atoms: _384  and  _387
REMARK  159  A    between atoms: _387  and  _388
REMARK  160  A    between atoms: _391  and  _393
REMARK  161  A    between atoms: _393  and  _394
REMARK  162  A    between atoms: _393  and  _396
REMARK  163  A    between atoms: _396  and  _397
REMARK  164  A    between atoms: _400  and  _402
REMARK  165  A    between atoms: _402  and  _403
REMARK  166  A    between atoms: _402  and  _405
REMARK  167  A    between atoms: _408  and  _410
REMARK  168  A    between atoms: _410  and  _411
REMARK  169  A    between atoms: _410  and  _413
REMARK  170  A    between atoms: _413  and  _414
REMARK  171  A    between atoms: _414  and  _415
REMARK  172  A    between atoms: _415  and  _416
REMARK  173  A    between atoms: _416  and  _417
REMARK  174  A    between atoms: _421  and  _423
REMARK  175  A    between atoms: _423  and  _424
REMARK  176  A    between atoms: _423  and  _426
REMARK  177  A    between atoms: _426  and  _427
REMARK  178  A    between atoms: _427  and  _428
REMARK  179  A    between atoms: _430  and  _432
REMARK  180  A    between atoms: _432  and  _433
REMARK  181  A    between atoms: _432  and  _435
REMARK  182  A    between atoms: _435  and  _436
REMARK  183  A    between atoms: _439  and  _441
REMARK  184  A    between atoms: _441  and  _442
REMARK  185  A    between atoms: _444  and  _446
REMARK  186  A    between atoms: _446  and  _447
REMARK  187  A    between atoms: _449  and  _451
REMARK  188  A    between atoms: _451  and  _452
REMARK  189  A    between atoms: _451  and  _454
REMARK  190  A    between atoms: _454  and  _455
REMARK  191  A    between atoms: _458  and  _460
REMARK  192  A    between atoms: _460  and  _461
REMARK  193  A    between atoms: _463  and  _465
REMARK  194  A    between atoms: _465  and  _466
REMARK  195  A    between atoms: _468  and  _470
REMARK  196  A    between atoms: _470  and  _471
REMARK  197  A    between atoms: _470  and  _473
REMARK  198  A    between atoms: _473  and  _474
REMARK  199  A    between atoms: _480  and  _482
REMARK  200  A    between atoms: _482  and  _483
REMARK  201  A    between atoms: _482  and  _485
REMARK  202  A    between atoms: _485  and  _486
REMARK  203  A    between atoms: _489  and  _491
REMARK  204  A    between atoms: _491  and  _492
REMARK  205  A    between atoms: _491  and  _494
REMARK  206  A    between atoms: _497  and  _499
REMARK  207  A    between atoms: _499  and  _500
REMARK  208  A    between atoms: _499  and  _502
REMARK  209  A    between atoms: _502  and  _503
REMARK  210  A    between atoms: _506  and  _508
REMARK  211  A    between atoms: _508  and  _509
REMARK  212  A    between atoms: _508  and  _511
REMARK  213  A    between atoms: _511  and  _512
REMARK  214  A    between atoms: _516  and  _517
REMARK  215  A    between atoms: _522  and  _524
REMARK  216  A    between atoms: _524  and  _525
REMARK  217  A    between atoms: _524  and  _527
REMARK  218  A    between atoms: _530  and  _532
REMARK  219  A    between atoms: _532  and  _533
REMARK  220  A    between atoms: _532  and  _535
REMARK  221  A    between atoms: _535  and  _536
REMARK  222  A    between atoms: _541  and  _543
REMARK  223  A    between atoms: _543  and  _544
REMARK  224  A    between atoms: _543  and  _546
REMARK  225  A    between atoms: _546  and  _547
REMARK  226  A    between atoms: _550  and  _552
REMARK  227  A    between atoms: _552  and  _553
REMARK  228  A    between atoms: _552  and  _555
REMARK  229  A    between atoms: _555  and  _556
REMARK  230  A    between atoms: _559  and  _561
REMARK  231  A    between atoms: _561  and  _562
REMARK  232  A    between atoms: _564  and  _566
REMARK  233  A    between atoms: _566  and  _567
REMARK  234  A    between atoms: _566  and  _569
REMARK  235  A    between atoms: _569  and  _570
REMARK  236  A    between atoms: _570  and  _571
REMARK  237  A    between atoms: _571  and  _572
REMARK  238  A    between atoms: _581  and  _583
REMARK  239  A    between atoms: _583  and  _584
REMARK  240  A    between atoms: _583  and  _586
REMARK  241  A    between atoms: _586  and  _587
REMARK                            x       y       z     vdW  Elec       q    Type
REMARK                         _______ _______ _______ _____ _____    ______ ____
ROOT
ATOM      1  O   HOH     1      21.699 -19.234 -18.270  0.00  0.00    +0.000 OA
ENDROOT
TORSDOF 0
REMARK  Name = ../refined-set-2016/2pk6/2pk6_pocket.pdb
REMARK  241 active torsions:
REMARK  status: ('A' for Active; 'I' for Inactive)
REMARK    1  A    between atoms: _1  and  _3
REMARK    2  A    between atoms: _3  and  _4
REMARK    3  A    between atoms: _3  and  _6
REMARK    4  A    between atoms: _6  and  _7
REMARK    5  A    between atoms: _7  and  _8
REMARK    6  A    between atoms: _8  and  _9
REMARK    7  A    between atoms: _18  and  _20
REMARK    8  A    between atoms: _20  and  _21
REMARK    9  A    between atoms: _20  and  _23
REMARK   10  A    between atoms: _23  and  _24
REMARK   11  A    between atoms: _27  and  _29
REMARK   12  A    between atoms: _29  and  _30
REMARK   13  A    between atoms: _29  and  _32
REMARK   14  A    between atoms: _32  and  _33
REMARK   15  A    between atoms: _36  and  _38
REMARK   16  A    between atoms: _38  and  _39
REMARK   17  A    between atoms: _38  and  _41
REMARK   18  A    between atoms: _41  and  _42
REMARK   19  A    between atoms: _45  and  _47
REMARK   20  A    between atoms: _47  and  _48
REMARK   21  A    between atoms: _47  and  _50
REMARK   22  A    between atoms: _50  and  _51
REMARK   23  A    between atoms: _54  and  _56
REMARK   24  A    between atoms: _56  and  _57
REMARK   25  A    between atoms: _59  and  _61
REMARK   26  A    between atoms: _61  and  _62
REMARK   27  A    between atoms: _65  and  _67
REMARK   28  A    between atoms: _67  and  _68
REMARK   29  A    between atoms: _67  and  _70
REMARK   30  A    between atoms: _70  and  _71
REMARK   31  A    between atoms: _74  and  _76
REMARK   32  A    between atoms: _76  and  _77
REMARK   33  A    between atoms: _76  and  _79
REMARK   34  A    between atoms: _79  and  _80
REMARK   35  A    between atoms: _83  and  _85
REMARK   36  A    between atoms: _85  and  _86
REMARK   37  A    between atoms: _85  and  _88
REMARK   38  A    between atoms: _88  and  _89
REMARK   39  A    between atoms: _92  and  _94
REMARK   40  A    between atoms: _94  and  _95
REMARK   41  A    between atoms: _94  and  _97
REMARK   42  A    between atoms: _100  and  _102
REMARK   43  A    between atoms: _102  and  _103
REMARK   44  A    between atoms: _102  and  _105
REMARK   45  A    between atoms: _105  and  _106
REMARK   46  A    between atoms: _109  and  _111
REMARK   47  A    between atoms: _111  and  _112
REMARK   48  A    between atoms: _111  and  _114
REMARK   49  A    between atoms: _114  and  _115
REMARK   50  A    between atoms: _115  and  _116
REMARK   51  A    between atoms: _116  and  _117
REMARK   52  A    between atoms: _117  and  _118
REMARK   53  A    between atoms: _122  and  _124
REMARK   54  A    between atoms: _124  and  _125
REMARK   55  A    between atoms: _124  and  _127
REMARK   56  A    between atoms: _127  and  _128
REMARK   57  A    between atoms: _128  and  _129
REMARK   58  A    between atoms: _131  and  _133
REMARK   59  A    between atoms: _133  and  _134
REMARK   60  A    between atoms: _133  and  _136
REMARK   61  A    between atoms: _136  and  _137
REMARK   62  A    between atoms: _140  and  _142
REMARK   63  A    between atoms: _142  and  _143
REMARK   64  A    between atoms: _145  and  _147
REMARK   65  A    between atoms: _147  and  _148
REMARK   66  A    between atoms: _150  and  _152
REMARK   67  A    between atoms: _152  and  _153
REMARK   68  A    between atoms: _152  and  _155
REMARK   69  A    between atoms: _155  and  _156
REMARK   70  A    between atoms: _159  and  _161
REMARK   71  A    between atoms: _161  and  _162
REMARK   72  A    between atoms: _164  and  _166
REMARK   73  A    between atoms: _166  and  _167
REMARK   74  A    between atoms: _169  and  _171
REMARK   75  A    between atoms: _171  and  _172
REMARK   76  A    between atoms: _171  and  _174
REMARK   77  A    between atoms: _174  and  _175
REMARK   78  A    between atoms: _181  and  _183
REMARK   79  A    between atoms: _183  and  _184
REMARK   80  A    between atoms: _183  and  _186
REMARK   81  A    between atoms: _186  and  _187
REMARK   82  A    between atoms: _190  and  _192
REMARK   83  A    between atoms: _192  and  _193
REMARK   84  A    between atoms: _192  and  _195
REMARK   85  A    between atoms: _198  and  _200
REMARK   86  A    between atoms: _200  and  _201
REMARK   87  A    between atoms: _200  and  _203
REMARK   88  A    between atoms: _203  and  _204
REMARK   89  A    between atoms: _208  and  _209
REMARK   90  A    between atoms: _214  and  _216
REMARK   91  A    between atoms: _216  and  _217
REMARK   92  A    between atoms: _216  and  _219
REMARK   93  A    between atoms: _219  and  _220
REMARK   94  A    between atoms: _224  and  _225
REMARK   95  A    between atoms: _230  and  _232
REMARK   96  A    between atoms: _232  and  _233
REMARK   97  A    between atoms: _232  and  _235
REMARK   98  A    between atoms: _238  and  _240
REMARK   99  A    between atoms: _240  and  _241
REMARK  100  A    between atoms: _240  and  _243
REMARK  101  A    between atoms: _243  and  _244
REMARK  102  A    between atoms: _249  and  _251
REMARK  103  A    between atoms: _251  and  _252
REMARK  104  A    between atoms: _251  and  _254
REMARK  105  A    between atoms: _254  and  _255
REMARK  106  A    between atoms: _258  and  _260
REMARK  107  A    between atoms: _260  and  _261
REMARK  108  A    between atoms: _260  and  _263
REMARK  109  A    between atoms: _263  and  _264
REMARK  110  A    between atoms: _267  and  _269
REMARK  111  A    between atoms: _269  and  _270
REMARK  112  A    between atoms: _272  and  _274
REMARK  113  A    between atoms: _274  and  _275
REMARK  114  A    between atoms: _274  and  _277
REMARK  115  A    between atoms: _277  and  _278
REMARK  116  A    between atoms: _278  and  _279
REMARK  117  A    between atoms: _279  and  _280
REMARK  118  A    between atoms: _289  and  _291
REMARK  119  A    between atoms: _291  and  _292
REMARK  120  A    between atoms: _291  and  _294
REMARK  121  A    between atoms: _294  and  _295
REMARK  122  A    between atoms: _300  and  _302
REMARK  123  A    between atoms: _302  and  _303
REMARK  124  A    between atoms: _302  and  _305
REMARK  125  A    between atoms: _305  and  _306
REMARK  126  A    between atoms: _306  and  _307
REMARK  127  A    between atoms: _307  and  _308
REMARK  128  A    between atoms: _317  and  _319
REMARK  129  A    between atoms: _319  and  _320
REMARK  130  A    between atoms: _319  and  _322
REMARK  131  A    between atoms: _322  and  _323
REMARK  132  A    between atoms: _326  and  _328
REMARK  133  A    between atoms: _328  and  _329
REMARK  134  A    between atoms: _328  and  _331
REMARK  135  A    between atoms: _331  and  _332
REMARK  136  A    between atoms: _335  and  _337
REMARK  137  A    between atoms: _337  and  _338
REMARK  138  A    between atoms: _337  and  _340
REMARK  139  A    between atoms: _340  and  _341
REMARK  140  A    between atoms: _344  and  _346
REMARK  141  A    between atoms: _346  and  _347
REMARK  142  A    between atoms: _346  and  _349
REMARK  143  A    between atoms: _349  and  _350
REMARK  144  A    between atoms: _353  and  _355
REMARK  145  A    between atoms: _355  and  _356
REMARK  146  A    between atoms: _355  and  _358
REMARK  147  A    between atoms: _358  and  _359
REMARK  148  A    between atoms: _362  and  _364
REMARK  149  A    between atoms: _364  and  _365
REMARK  150  A    between atoms: _367  and  _369
REMARK  151  A    between atoms: _369  and  _370
REMARK  152  A    between atoms: _373  and  _375
REMARK  153  A    between atoms: _375  and  _376
REMARK  154  A    between atoms: _375  and  _378
REMARK  155  A    between atoms: _378  and  _379
REMARK  156  A    between atoms: _382  and  _384
REMARK  157  A    between atoms: _384  and  _385
REMARK  158  A    between atoms: _384  and  _387
REMARK  159  A    between atoms: _387  and  _388
REMARK  160  A    between atoms: _391  and  _393
REMARK  161  A    between atoms: _393  and  _394
REMARK  162  A    between atoms: _393  and  _396
REMARK  163  A    between atoms: _396  and  _397
REMARK  164  A    between atoms: _400  and  _402
REMARK  165  A    between atoms: _402  and  _403
REMARK  166  A    between atoms: _402  and  _405
REMARK  167  A    between atoms: _408  and  _410
REMARK  168  A    between atoms: _410  and  _411
REMARK  169  A    between atoms: _410  and  _413
REMARK  170  A    between atoms: _413  and  _414
REMARK  171  A    between atoms: _414  and  _415
REMARK  172  A    between atoms: _415  and  _416
REMARK  173  A    between atoms: _416  and  _417
REMARK  174  A    between atoms: _421  and  _423
REMARK  175  A    between atoms: _423  and  _424
REMARK  176  A    between atoms: _423  and  _426
REMARK  177  A    between atoms: _426  and  _427
REMARK  178  A    between atoms: _427  and  _428
REMARK  179  A    between atoms: _430  and  _432
REMARK  180  A    between atoms: _432  and  _433
REMARK  181  A    between atoms: _432  and  _435
REMARK  182  A    between atoms: _435  and  _436
REMARK  183  A    between atoms: _439  and  _441
REMARK  184  A    between atoms: _441  and  _442
REMARK  185  A    between atoms: _444  and  _446
REMARK  186  A    between atoms: _446  and  _447
REMARK  187  A    between atoms: _449  and  _451
REMARK  188  A    between atoms: _451  and  _452
REMARK  189  A    between atoms: _451  and  _454
REMARK  190  A    between atoms: _454  and  _455
REMARK  191  A    between atoms: _458  and  _460
REMARK  192  A    between atoms: _460  and  _461
REMARK  193  A    between atoms: _463  and  _465
REMARK  194  A    between atoms: _465  and  _466
REMARK  195  A    between atoms: _468  and  _470
REMARK  196  A    between atoms: _470  and  _471
REMARK  197  A    between atoms: _470  and  _473
REMARK  198  A    between atoms: _473  and  _474
REMARK  199  A    between atoms: _480  and  _482
REMARK  200  A    between atoms: _482  and  _483
REMARK  201  A    between atoms: _482  and  _485
REMARK  202  A    between atoms: _485  and  _486
REMARK  203  A    between atoms: _489  and  _491
REMARK  204  A    between atoms: _491  and  _492
REMARK  205  A    between atoms: _491  and  _494
REMARK  206  A    between atoms: _497  and  _499
REMARK  207  A    between atoms: _499  and  _500
REMARK  208  A    between atoms: _499  and  _502
REMARK  209  A    between atoms: _502  and  _503
REMARK  210  A    between atoms: _506  and  _508
REMARK  211  A    between atoms: _508  and  _509
REMARK  212  A    between atoms: _508  and  _511
REMARK  213  A    between atoms: _511  and  _512
REMARK  214  A    between atoms: _516  and  _517
REMARK  215  A    between atoms: _522  and  _524
REMARK  216  A    between atoms: _524  and  _525
REMARK  217  A    between atoms: _524  and  _527
REMARK  218  A    between atoms: _530  and  _532
REMARK  219  A    between atoms: _532  and  _533
REMARK  220  A    between atoms: _532  and  _535
REMARK  221  A    between atoms: _535  and  _536
REMARK  222  A    between atoms: _541  and  _543
REMARK  223  A    between atoms: _543  and  _544
REMARK  224  A    between atoms: _543  and  _546
REMARK  225  A    between atoms: _546  and  _547
REMARK  226  A    between atoms: _550  and  _552
REMARK  227  A    between atoms: _552  and  _553
REMARK  228  A    between atoms: _552  and  _555
REMARK  229  A    between atoms: _555  and  _556
REMARK  230  A    between atoms: _559  and  _561
REMARK  231  A    between atoms: _561  and  _562
REMARK  232  A    between atoms: _564  and  _566
REMARK  233  A    between atoms: _566  and  _567
REMARK  234  A    between atoms: _566  and  _569
REMARK  235  A    between atoms: _569  and  _570
REMARK  236  A    between atoms: _570  and  _571
REMARK  237  A    between atoms: _571  and  _572
REMARK  238  A    between atoms: _581  and  _583
REMARK  239  A    between atoms: _583  and  _584
REMARK  240  A    between atoms: _583  and  _586
REMARK  241  A    between atoms: _586  and  _587
REMARK                            x       y       z     vdW  Elec       q    Type
REMARK                         _______ _______ _______ _____ _____    ______ ____
ROOT
ATOM      1  O   HOH     1      20.004 -27.040 -27.134  0.00  0.00    +0.000 OA
ENDROOT
TORSDOF 0
REMARK  Name = ../refined-set-2016/2pk6/2pk6_pocket.pdb
REMARK  241 active torsions:
REMARK  status: ('A' for Active; 'I' for Inactive)
REMARK    1  A    between atoms: _1  and  _3
REMARK    2  A    between atoms: _3  and  _4
REMARK    3  A    between atoms: _3  and  _6
REMARK    4  A    between atoms: _6  and  _7
REMARK    5  A    between atoms: _7  and  _8
REMARK    6  A    between atoms: _8  and  _9
REMARK    7  A    between atoms: _18  and  _20
REMARK    8  A    between atoms: _20  and  _21
REMARK    9  A    between atoms: _20  and  _23
REMARK   10  A    between atoms: _23  and  _24
REMARK   11  A    between atoms: _27  and  _29
REMARK   12  A    between atoms: _29  and  _30
REMARK   13  A    between atoms: _29  and  _32
REMARK   14  A    between atoms: _32  and  _33
REMARK   15  A    between atoms: _36  and  _38
REMARK   16  A    between atoms: _38  and  _39
REMARK   17  A    between atoms: _38  and  _41
REMARK   18  A    between atoms: _41  and  _42
REMARK   19  A    between atoms: _45  and  _47
REMARK   20  A    between atoms: _47  and  _48
REMARK   21  A    between atoms: _47  and  _50
REMARK   22  A    between atoms: _50  and  _51
REMARK   23  A    between atoms: _54  and  _56
REMARK   24  A    between atoms: _56  and  _57
REMARK   25  A    between atoms: _59  and  _61
REMARK   26  A    between atoms: _61  and  _62
REMARK   27  A    between atoms: _65  and  _67
REMARK   28  A    between atoms: _67  and  _68
REMARK   29  A    between atoms: _67  and  _70
REMARK   30  A    between atoms: _70  and  _71
REMARK   31  A    between atoms: _74  and  _76
REMARK   32  A    between atoms: _76  and  _77
REMARK   33  A    between atoms: _76  and  _79
REMARK   34  A    between atoms: _79  and  _80
REMARK   35  A    between atoms: _83  and  _85
REMARK   36  A    between atoms: _85  and  _86
REMARK   37  A    between atoms: _85  and  _88
REMARK   38  A    between atoms: _88  and  _89
REMARK   39  A    between atoms: _92  and  _94
REMARK   40  A    between atoms: _94  and  _95
REMARK   41  A    between atoms: _94  and  _97
REMARK   42  A    between atoms: _100  and  _102
REMARK   43  A    between atoms: _102  and  _103
REMARK   44  A    between atoms: _102  and  _105
REMARK   45  A    between atoms: _105  and  _106
REMARK   46  A    between atoms: _109  and  _111
REMARK   47  A    between atoms: _111  and  _112
REMARK   48  A    between atoms: _111  and  _114
REMARK   49  A    between atoms: _114  and  _115
REMARK   50  A    between atoms: _115  and  _116
REMARK   51  A    between atoms: _116  and  _117
REMARK   52  A    between atoms: _117  and  _118
REMARK   53  A    between atoms: _122  and  _124
REMARK   54  A    between atoms: _124  and  _125
REMARK   55  A    between atoms: _124  and  _127
REMARK   56  A    between atoms: _127  and  _128
REMARK   57  A    between atoms: _128  and  _129
REMARK   58  A    between atoms: _131  and  _133
REMARK   59  A    between atoms: _133  and  _134
REMARK   60  A    between atoms: _133  and  _136
REMARK   61  A    between atoms: _136  and  _137
REMARK   62  A    between atoms: _140  and  _142
REMARK   63  A    between atoms: _142  and  _143
REMARK   64  A    between atoms: _145  and  _147
REMARK   65  A    between atoms: _147  and  _148
REMARK   66  A    between atoms: _150  and  _152
REMARK   67  A    between atoms: _152  and  _153
REMARK   68  A    between atoms: _152  and  _155
REMARK   69  A    between atoms: _155  and  _156
REMARK   70  A    between atoms: _159  and  _161
REMARK   71  A    between atoms: _161  and  _162
REMARK   72  A    between atoms: _164  and  _166
REMARK   73  A    between atoms: _166  and  _167
REMARK   74  A    between atoms: _169  and  _171
REMARK   75  A    between atoms: _171  and  _172
REMARK   76  A    between atoms: _171  and  _174
REMARK   77  A    between atoms: _174  and  _175
REMARK   78  A    between atoms: _181  and  _183
REMARK   79  A    between atoms: _183  and  _184
REMARK   80  A    between atoms: _183  and  _186
REMARK   81  A    between atoms: _186  and  _187
REMARK   82  A    between atoms: _190  and  _192
REMARK   83  A    between atoms: _192  and  _193
REMARK   84  A    between atoms: _192  and  _195
REMARK   85  A    between atoms: _198  and  _200
REMARK   86  A    between atoms: _200  and  _201
REMARK   87  A    between atoms: _200  and  _203
REMARK   88  A    between atoms: _203  and  _204
REMARK   89  A    between atoms: _208  and  _209
REMARK   90  A    between atoms: _214  and  _216
REMARK   91  A    between atoms: _216  and  _217
REMARK   92  A    between atoms: _216  and  _219
REMARK   93  A    between atoms: _219  and  _220
REMARK   94  A    between atoms: _224  and  _225
REMARK   95  A    between atoms: _230  and  _232
REMARK   96  A    between atoms: _232  and  _233
REMARK   97  A    between atoms: _232  and  _235
REMARK   98  A    between atoms: _238  and  _240
REMARK   99  A    between atoms: _240  and  _241
REMARK  100  A    between atoms: _240  and  _243
REMARK  101  A    between atoms: _243  and  _244
REMARK  102  A    between atoms: _249  and  _251
REMARK  103  A    between atoms: _251  and  _252
REMARK  104  A    between atoms: _251  and  _254
REMARK  105  A    between atoms: _254  and  _255
REMARK  106  A    between atoms: _258  and  _260
REMARK  107  A    between atoms: _260  and  _261
REMARK  108  A    between atoms: _260  and  _263
REMARK  109  A    between atoms: _263  and  _264
REMARK  110  A    between atoms: _267  and  _269
REMARK  111  A    between atoms: _269  and  _270
REMARK  112  A    between atoms: _272  and  _274
REMARK  113  A    between atoms: _274  and  _275
REMARK  114  A    between atoms: _274  and  _277
REMARK  115  A    between atoms: _277  and  _278
REMARK  116  A    between atoms: _278  and  _279
REMARK  117  A    between atoms: _279  and  _280
REMARK  118  A    between atoms: _289  and  _291
REMARK  119  A    between atoms: _291  and  _292
REMARK  120  A    between atoms: _291  and  _294
REMARK  121  A    between atoms: _294  and  _295
REMARK  122  A    between atoms: _300  and  _302
REMARK  123  A    between atoms: _302  and  _303
REMARK  124  A    between atoms: _302  and  _305
REMARK  125  A    between atoms: _305  and  _306
REMARK  126  A    between atoms: _306  and  _307
REMARK  127  A    between atoms: _307  and  _308
REMARK  128  A    between atoms: _317  and  _319
REMARK  129  A    between atoms: _319  and  _320
REMARK  130  A    between atoms: _319  and  _322
REMARK  131  A    between atoms: _322  and  _323
REMARK  132  A    between atoms: _326  and  _328
REMARK  133  A    between atoms: _328  and  _329
REMARK  134  A    between atoms: _328  and  _331
REMARK  135  A    between atoms: _331  and  _332
REMARK  136  A    between atoms: _335  and  _337
REMARK  137  A    between atoms: _337  and  _338
REMARK  138  A    between atoms: _337  and  _340
REMARK  139  A    between atoms: _340  and  _341
REMARK  140  A    between atoms: _344  and  _346
REMARK  141  A    between atoms: _346  and  _347
REMARK  142  A    between atoms: _346  and  _349
REMARK  143  A    between atoms: _349  and  _350
REMARK  144  A    between atoms: _353  and  _355
REMARK  145  A    between atoms: _355  and  _356
REMARK  146  A    between atoms: _355  and  _358
REMARK  147  A    between atoms: _358  and  _359
REMARK  148  A    between atoms: _362  and  _364
REMARK  149  A    between atoms: _364  and  _365
REMARK  150  A    between atoms: _367  and  _369
REMARK  151  A    between atoms: _369  and  _370
REMARK  152  A    between atoms: _373  and  _375
REMARK  153  A    between atoms: _375  and  _376
REMARK  154  A    between atoms: _375  and  _378
REMARK  155  A    between atoms: _378  and  _379
REMARK  156  A    between atoms: _382  and  _384
REMARK  157  A    between atoms: _384  and  _385
REMARK  158  A    between atoms: _384  and  _387
REMARK  159  A    between atoms: _387  and  _388
REMARK  160  A    between atoms: _391  and  _393
REMARK  161  A    between atoms: _393  and  _394
REMARK  162  A    between atoms: _393  and  _396
REMARK  163  A    between atoms: _396  and  _397
REMARK  164  A    between atoms: _400  and  _402
REMARK  165  A    between atoms: _402  and  _403
REMARK  166  A    between atoms: _402  and  _405
REMARK  167  A    between atoms: _408  and  _410
REMARK  168  A    between atoms: _410  and  _411
REMARK  169  A    between atoms: _410  and  _413
REMARK  170  A    between atoms: _413  and  _414
REMARK  171  A    between atoms: _414  and  _415
REMARK  172  A    between atoms: _415  and  _416
REMARK  173  A    between atoms: _416  and  _417
REMARK  174  A    between atoms: _421  and  _423
REMARK  175  A    between atoms: _423  and  _424
REMARK  176  A    between atoms: _423  and  _426
REMARK  177  A    between atoms: _426  and  _427
REMARK  178  A    between atoms: _427  and  _428
REMARK  179  A    between atoms: _430  and  _432
REMARK  180  A    between atoms: _432  and  _433
REMARK  181  A    between atoms: _432  and  _435
REMARK  182  A    between atoms: _435  and  _436
REMARK  183  A    between atoms: _439  and  _441
REMARK  184  A    between atoms: _441  and  _442
REMARK  185  A    between atoms: _444  and  _446
REMARK  186  A    between atoms: _446  and  _447
REMARK  187  A    between atoms: _449  and  _451
REMARK  188  A    between atoms: _451  and  _452
REMARK  189  A    between atoms: _451  and  _454
REMARK  190  A    between atoms: _454  and  _455
REMARK  191  A    between atoms: _458  and  _460
REMARK  192  A    between atoms: _460  and  _461
REMARK  193  A    between atoms: _463  and  _465
REMARK  194  A    between atoms: _465  and  _466
REMARK  195  A    between atoms: _468  and  _470
REMARK  196  A    between atoms: _470  and  _471
REMARK  197  A    between atoms: _470  and  _473
REMARK  198  A    between atoms: _473  and  _474
REMARK  199  A    between atoms: _480  and  _482
REMARK  200  A    between atoms: _482  and  _483
REMARK  201  A    between atoms: _482  and  _485
REMARK  202  A    between atoms: _485  and  _486
REMARK  203  A    between atoms: _489  and  _491
REMARK  204  A    between atoms: _491  and  _492
REMARK  205  A    between atoms: _491  and  _494
REMARK  206  A    between atoms: _497  and  _499
REMARK  207  A    between atoms: _499  and  _500
REMARK  208  A    between atoms: _499  and  _502
REMARK  209  A    between atoms: _502  and  _503
REMARK  210  A    between atoms: _506  and  _508
REMARK  211  A    between atoms: _508  and  _509
REMARK  212  A    between atoms: _508  and  _511
REMARK  213  A    between atoms: _511  and  _512
REMARK  214  A    between atoms: _516  and  _517
REMARK  215  A    between atoms: _522  and  _524
REMARK  216  A    between atoms: _524  and  _525
REMARK  217  A    between atoms: _524  and  _527
REMARK  218  A    between atoms: _530  and  _532
REMARK  219  A    between atoms: _532  and  _533
REMARK  220  A    between atoms: _532  and  _535
REMARK  221  A    between atoms: _535  and  _536
REMARK  222  A    between atoms: _541  and  _543
REMARK  223  A    between atoms: _543  and  _544
REMARK  224  A    between atoms: _543  and  _546
REMARK  225  A    between atoms: _546  and  _547
REMARK  226  A    between atoms: _550  and  _552
REMARK  227  A    between atoms: _552  and  _553
REMARK  228  A    between atoms: _552  and  _555
REMARK  229  A    between atoms: _555  and  _556
REMARK  230  A    between atoms: _559  and  _561
REMARK  231  A    between atoms: _561  and  _562
REMARK  232  A    between atoms: _564  and  _566
REMARK  233  A    between atoms: _566  and  _567
REMARK  234  A    between atoms: _566  and  _569
REMARK  235  A    between atoms: _569  and  _570
REMARK  236  A    between atoms: _570  and  _571
REMARK  237  A    between atoms: _571  and  _572
REMARK  238  A    between atoms: _581  and  _583
REMARK  239  A    between atoms: _583  and  _584
REMARK  240  A    between atoms: _583  and  _586
REMARK  241  A    between atoms: _586  and  _587
REMARK                            x       y       z     vdW  Elec       q    Type
REMARK                         _______ _______ _______ _____ _____    ______ ____
ROOT
ATOM      1  O   HOH     1      20.342 -21.175 -16.799  0.00  0.00    +0.000 OA
ENDROOT
TORSDOF 0
REMARK  Name = ../refined-set-2016/2pk6/2pk6_pocket.pdb
REMARK  241 active torsions:
REMARK  status: ('A' for Active; 'I' for Inactive)
REMARK    1  A    between atoms: _1  and  _3
REMARK    2  A    between atoms: _3  and  _4
REMARK    3  A    between atoms: _3  and  _6
REMARK    4  A    between atoms: _6  and  _7
REMARK    5  A    between atoms: _7  and  _8
REMARK    6  A    between atoms: _8  and  _9
REMARK    7  A    between atoms: _18  and  _20
REMARK    8  A    between atoms: _20  and  _21
REMARK    9  A    between atoms: _20  and  _23
REMARK   10  A    between atoms: _23  and  _24
REMARK   11  A    between atoms: _27  and  _29
REMARK   12  A    between atoms: _29  and  _30
REMARK   13  A    between atoms: _29  and  _32
REMARK   14  A    between atoms: _32  and  _33
REMARK   15  A    between atoms: _36  and  _38
REMARK   16  A    between atoms: _38  and  _39
REMARK   17  A    between atoms: _38  and  _41
REMARK   18  A    between atoms: _41  and  _42
REMARK   19  A    between atoms: _45  and  _47
REMARK   20  A    between atoms: _47  and  _48
REMARK   21  A    between atoms: _47  and  _50
REMARK   22  A    between atoms: _50  and  _51
REMARK   23  A    between atoms: _54  and  _56
REMARK   24  A    between atoms: _56  and  _57
REMARK   25  A    between atoms: _59  and  _61
REMARK   26  A    between atoms: _61  and  _62
REMARK   27  A    between atoms: _65  and  _67
REMARK   28  A    between atoms: _67  and  _68
REMARK   29  A    between atoms: _67  and  _70
REMARK   30  A    between atoms: _70  and  _71
REMARK   31  A    between atoms: _74  and  _76
REMARK   32  A    between atoms: _76  and  _77
REMARK   33  A    between atoms: _76  and  _79
REMARK   34  A    between atoms: _79  and  _80
REMARK   35  A    between atoms: _83  and  _85
REMARK   36  A    between atoms: _85  and  _86
REMARK   37  A    between atoms: _85  and  _88
REMARK   38  A    between atoms: _88  and  _89
REMARK   39  A    between atoms: _92  and  _94
REMARK   40  A    between atoms: _94  and  _95
REMARK   41  A    between atoms: _94  and  _97
REMARK   42  A    between atoms: _100  and  _102
REMARK   43  A    between atoms: _102  and  _103
REMARK   44  A    between atoms: _102  and  _105
REMARK   45  A    between atoms: _105  and  _106
REMARK   46  A    between atoms: _109  and  _111
REMARK   47  A    between atoms: _111  and  _112
REMARK   48  A    between atoms: _111  and  _114
REMARK   49  A    between atoms: _114  and  _115
REMARK   50  A    between atoms: _115  and  _116
REMARK   51  A    between atoms: _116  and  _117
REMARK   52  A    between atoms: _117  and  _118
REMARK   53  A    between atoms: _122  and  _124
REMARK   54  A    between atoms: _124  and  _125
REMARK   55  A    between atoms: _124  and  _127
REMARK   56  A    between atoms: _127  and  _128
REMARK   57  A    between atoms: _128  and  _129
REMARK   58  A    between atoms: _131  and  _133
REMARK   59  A    between atoms: _133  and  _134
REMARK   60  A    between atoms: _133  and  _136
REMARK   61  A    between atoms: _136  and  _137
REMARK   62  A    between atoms: _140  and  _142
REMARK   63  A    between atoms: _142  and  _143
REMARK   64  A    between atoms: _145  and  _147
REMARK   65  A    between atoms: _147  and  _148
REMARK   66  A    between atoms: _150  and  _152
REMARK   67  A    between atoms: _152  and  _153
REMARK   68  A    between atoms: _152  and  _155
REMARK   69  A    between atoms: _155  and  _156
REMARK   70  A    between atoms: _159  and  _161
REMARK   71  A    between atoms: _161  and  _162
REMARK   72  A    between atoms: _164  and  _166
REMARK   73  A    between atoms: _166  and  _167
REMARK   74  A    between atoms: _169  and  _171
REMARK   75  A    between atoms: _171  and  _172
REMARK   76  A    between atoms: _171  and  _174
REMARK   77  A    between atoms: _174  and  _175
REMARK   78  A    between atoms: _181  and  _183
REMARK   79  A    between atoms: _183  and  _184
REMARK   80  A    between atoms: _183  and  _186
REMARK   81  A    between atoms: _186  and  _187
REMARK   82  A    between atoms: _190  and  _192
REMARK   83  A    between atoms: _192  and  _193
REMARK   84  A    between atoms: _192  and  _195
REMARK   85  A    between atoms: _198  and  _200
REMARK   86  A    between atoms: _200  and  _201
REMARK   87  A    between atoms: _200  and  _203
REMARK   88  A    between atoms: _203  and  _204
REMARK   89  A    between atoms: _208  and  _209
REMARK   90  A    between atoms: _214  and  _216
REMARK   91  A    between atoms: _216  and  _217
REMARK   92  A    between atoms: _216  and  _219
REMARK   93  A    between atoms: _219  and  _220
REMARK   94  A    between atoms: _224  and  _225
REMARK   95  A    between atoms: _230  and  _232
REMARK   96  A    between atoms: _232  and  _233
REMARK   97  A    between atoms: _232  and  _235
REMARK   98  A    between atoms: _238  and  _240
REMARK   99  A    between atoms: _240  and  _241
REMARK  100  A    between atoms: _240  and  _243
REMARK  101  A    between atoms: _243  and  _244
REMARK  102  A    between atoms: _249  and  _251
REMARK  103  A    between atoms: _251  and  _252
REMARK  104  A    between atoms: _251  and  _254
REMARK  105  A    between atoms: _254  and  _255
REMARK  106  A    between atoms: _258  and  _260
REMARK  107  A    between atoms: _260  and  _261
REMARK  108  A    between atoms: _260  and  _263
REMARK  109  A    between atoms: _263  and  _264
REMARK  110  A    between atoms: _267  and  _269
REMARK  111  A    between atoms: _269  and  _270
REMARK  112  A    between atoms: _272  and  _274
REMARK  113  A    between atoms: _274  and  _275
REMARK  114  A    between atoms: _274  and  _277
REMARK  115  A    between atoms: _277  and  _278
REMARK  116  A    between atoms: _278  and  _279
REMARK  117  A    between atoms: _279  and  _280
REMARK  118  A    between atoms: _289  and  _291
REMARK  119  A    between atoms: _291  and  _292
REMARK  120  A    between atoms: _291  and  _294
REMARK  121  A    between atoms: _294  and  _295
REMARK  122  A    between atoms: _300  and  _302
REMARK  123  A    between atoms: _302  and  _303
REMARK  124  A    between atoms: _302  and  _305
REMARK  125  A    between atoms: _305  and  _306
REMARK  126  A    between atoms: _306  and  _307
REMARK  127  A    between atoms: _307  and  _308
REMARK  128  A    between atoms: _317  and  _319
REMARK  129  A    between atoms: _319  and  _320
REMARK  130  A    between atoms: _319  and  _322
REMARK  131  A    between atoms: _322  and  _323
REMARK  132  A    between atoms: _326  and  _328
REMARK  133  A    between atoms: _328  and  _329
REMARK  134  A    between atoms: _328  and  _331
REMARK  135  A    between atoms: _331  and  _332
REMARK  136  A    between atoms: _335  and  _337
REMARK  137  A    between atoms: _337  and  _338
REMARK  138  A    between atoms: _337  and  _340
REMARK  139  A    between atoms: _340  and  _341
REMARK  140  A    between atoms: _344  and  _346
REMARK  141  A    between atoms: _346  and  _347
REMARK  142  A    between atoms: _346  and  _349
REMARK  143  A    between atoms: _349  and  _350
REMARK  144  A    between atoms: _353  and  _355
REMARK  145  A    between atoms: _355  and  _356
REMARK  146  A    between atoms: _355  and  _358
REMARK  147  A    between atoms: _358  and  _359
REMARK  148  A    between atoms: _362  and  _364
REMARK  149  A    between atoms: _364  and  _365
REMARK  150  A    between atoms: _367  and  _369
REMARK  151  A    between atoms: _369  and  _370
REMARK  152  A    between atoms: _373  and  _375
REMARK  153  A    between atoms: _375  and  _376
REMARK  154  A    between atoms: _375  and  _378
REMARK  155  A    between atoms: _378  and  _379
REMARK  156  A    between atoms: _382  and  _384
REMARK  157  A    between atoms: _384  and  _385
REMARK  158  A    between atoms: _384  and  _387
REMARK  159  A    between atoms: _387  and  _388
REMARK  160  A    between atoms: _391  and  _393
REMARK  161  A    between atoms: _393  and  _394
REMARK  162  A    between atoms: _393  and  _396
REMARK  163  A    between atoms: _396  and  _397
REMARK  164  A    between atoms: _400  and  _402
REMARK  165  A    between atoms: _402  and  _403
REMARK  166  A    between atoms: _402  and  _405
REMARK  167  A    between atoms: _408  and  _410
REMARK  168  A    between atoms: _410  and  _411
REMARK  169  A    between atoms: _410  and  _413
REMARK  170  A    between atoms: _413  and  _414
REMARK  171  A    between atoms: _414  and  _415
REMARK  172  A    between atoms: _415  and  _416
REMARK  173  A    between atoms: _416  and  _417
REMARK  174  A    between atoms: _421  and  _423
REMARK  175  A    between atoms: _423  and  _424
REMARK  176  A    between atoms: _423  and  _426
REMARK  177  A    between atoms: _426  and  _427
REMARK  178  A    between atoms: _427  and  _428
REMARK  179  A    between atoms: _430  and  _432
REMARK  180  A    between atoms: _432  and  _433
REMARK  181  A    between atoms: _432  and  _435
REMARK  182  A    between atoms: _435  and  _436
REMARK  183  A    between atoms: _439  and  _441
REMARK  184  A    between atoms: _441  and  _442
REMARK  185  A    between atoms: _444  and  _446
REMARK  186  A    between atoms: _446  and  _447
REMARK  187  A    between atoms: _449  and  _451
REMARK  188  A    between atoms: _451  and  _452
REMARK  189  A    between atoms: _451  and  _454
REMARK  190  A    between atoms: _454  and  _455
REMARK  191  A    between atoms: _458  and  _460
REMARK  192  A    between atoms: _460  and  _461
REMARK  193  A    between atoms: _463  and  _465
REMARK  194  A    between atoms: _465  and  _466
REMARK  195  A    between atoms: _468  and  _470
REMARK  196  A    between atoms: _470  and  _471
REMARK  197  A    between atoms: _470  and  _473
REMARK  198  A    between atoms: _473  and  _474
REMARK  199  A    between atoms: _480  and  _482
REMARK  200  A    between atoms: _482  and  _483
REMARK  201  A    between atoms: _482  and  _485
REMARK  202  A    between atoms: _485  and  _486
REMARK  203  A    between atoms: _489  and  _491
REMARK  204  A    between atoms: _491  and  _492
REMARK  205  A    between atoms: _491  and  _494
REMARK  206  A    between atoms: _497  and  _499
REMARK  207  A    between atoms: _499  and  _500
REMARK  208  A    between atoms: _499  and  _502
REMARK  209  A    between atoms: _502  and  _503
REMARK  210  A    between atoms: _506  and  _508
REMARK  211  A    between atoms: _508  and  _509
REMARK  212  A    between atoms: _508  and  _511
REMARK  213  A    between atoms: _511  and  _512
REMARK  214  A    between atoms: _516  and  _517
REMARK  215  A    between atoms: _522  and  _524
REMARK  216  A    between atoms: _524  and  _525
REMARK  217  A    between atoms: _524  and  _527
REMARK  218  A    between atoms: _530  and  _532
REMARK  219  A    between atoms: _532  and  _533
REMARK  220  A    between atoms: _532  and  _535
REMARK  221  A    between atoms: _535  and  _536
REMARK  222  A    between atoms: _541  and  _543
REMARK  223  A    between atoms: _543  and  _544
REMARK  224  A    between atoms: _543  and  _546
REMARK  225  A    between atoms: _546  and  _547
REMARK  226  A    between atoms: _550  and  _552
REMARK  227  A    between atoms: _552  and  _553
REMARK  228  A    between atoms: _552  and  _555
REMARK  229  A    between atoms: _555  and  _556
REMARK  230  A    between atoms: _559  and  _561
REMARK  231  A    between atoms: _561  and  _562
REMARK  232  A    between atoms: _564  and  _566
REMARK  233  A    between atoms: _566  and  _567
REMARK  234  A    between atoms: _566  and  _569
REMARK  235  A    between atoms: _569  and  _570
REMARK  236  A    between atoms: _570  and  _571
REMARK  237  A    between atoms: _571  and  _572
REMARK  238  A    between atoms: _581  and  _583
REMARK  239  A    between atoms: _583  and  _584
REMARK  240  A    between atoms: _583  and  _586
REMARK  241  A    between atoms: _586  and  _587
REMARK                            x       y       z     vdW  Elec       q    Type
REMARK                         _______ _______ _______ _____ _____    ______ ____
ROOT
ATOM      1  O   HOH     1      11.211 -22.211 -16.862  0.00  0.00    +0.000 OA
ENDROOT
TORSDOF 0
REMARK  Name = ../refined-set-2016/2pk6/2pk6_pocket.pdb
REMARK  241 active torsions:
REMARK  status: ('A' for Active; 'I' for Inactive)
REMARK    1  A    between atoms: _1  and  _3
REMARK    2  A    between atoms: _3  and  _4
REMARK    3  A    between atoms: _3  and  _6
REMARK    4  A    between atoms: _6  and  _7
REMARK    5  A    between atoms: _7  and  _8
REMARK    6  A    between atoms: _8  and  _9
REMARK    7  A    between atoms: _18  and  _20
REMARK    8  A    between atoms: _20  and  _21
REMARK    9  A    between atoms: _20  and  _23
REMARK   10  A    between atoms: _23  and  _24
REMARK   11  A    between atoms: _27  and  _29
REMARK   12  A    between atoms: _29  and  _30
REMARK   13  A    between atoms: _29  and  _32
REMARK   14  A    between atoms: _32  and  _33
REMARK   15  A    between atoms: _36  and  _38
REMARK   16  A    between atoms: _38  and  _39
REMARK   17  A    between atoms: _38  and  _41
REMARK   18  A    between atoms: _41  and  _42
REMARK   19  A    between atoms: _45  and  _47
REMARK   20  A    between atoms: _47  and  _48
REMARK   21  A    between atoms: _47  and  _50
REMARK   22  A    between atoms: _50  and  _51
REMARK   23  A    between atoms: _54  and  _56
REMARK   24  A    between atoms: _56  and  _57
REMARK   25  A    between atoms: _59  and  _61
REMARK   26  A    between atoms: _61  and  _62
REMARK   27  A    between atoms: _65  and  _67
REMARK   28  A    between atoms: _67  and  _68
REMARK   29  A    between atoms: _67  and  _70
REMARK   30  A    between atoms: _70  and  _71
REMARK   31  A    between atoms: _74  and  _76
REMARK   32  A    between atoms: _76  and  _77
REMARK   33  A    between atoms: _76  and  _79
REMARK   34  A    between atoms: _79  and  _80
REMARK   35  A    between atoms: _83  and  _85
REMARK   36  A    between atoms: _85  and  _86
REMARK   37  A    between atoms: _85  and  _88
REMARK   38  A    between atoms: _88  and  _89
REMARK   39  A    between atoms: _92  and  _94
REMARK   40  A    between atoms: _94  and  _95
REMARK   41  A    between atoms: _94  and  _97
REMARK   42  A    between atoms: _100  and  _102
REMARK   43  A    between atoms: _102  and  _103
REMARK   44  A    between atoms: _102  and  _105
REMARK   45  A    between atoms: _105  and  _106
REMARK   46  A    between atoms: _109  and  _111
REMARK   47  A    between atoms: _111  and  _112
REMARK   48  A    between atoms: _111  and  _114
REMARK   49  A    between atoms: _114  and  _115
REMARK   50  A    between atoms: _115  and  _116
REMARK   51  A    between atoms: _116  and  _117
REMARK   52  A    between atoms: _117  and  _118
REMARK   53  A    between atoms: _122  and  _124
REMARK   54  A    between atoms: _124  and  _125
REMARK   55  A    between atoms: _124  and  _127
REMARK   56  A    between atoms: _127  and  _128
REMARK   57  A    between atoms: _128  and  _129
REMARK   58  A    between atoms: _131  and  _133
REMARK   59  A    between atoms: _133  and  _134
REMARK   60  A    between atoms: _133  and  _136
REMARK   61  A    between atoms: _136  and  _137
REMARK   62  A    between atoms: _140  and  _142
REMARK   63  A    between atoms: _142  and  _143
REMARK   64  A    between atoms: _145  and  _147
REMARK   65  A    between atoms: _147  and  _148
REMARK   66  A    between atoms: _150  and  _152
REMARK   67  A    between atoms: _152  and  _153
REMARK   68  A    between atoms: _152  and  _155
REMARK   69  A    between atoms: _155  and  _156
REMARK   70  A    between atoms: _159  and  _161
REMARK   71  A    between atoms: _161  and  _162
REMARK   72  A    between atoms: _164  and  _166
REMARK   73  A    between atoms: _166  and  _167
REMARK   74  A    between atoms: _169  and  _171
REMARK   75  A    between atoms: _171  and  _172
REMARK   76  A    between atoms: _171  and  _174
REMARK   77  A    between atoms: _174  and  _175
REMARK   78  A    between atoms: _181  and  _183
REMARK   79  A    between atoms: _183  and  _184
REMARK   80  A    between atoms: _183  and  _186
REMARK   81  A    between atoms: _186  and  _187
REMARK   82  A    between atoms: _190  and  _192
REMARK   83  A    between atoms: _192  and  _193
REMARK   84  A    between atoms: _192  and  _195
REMARK   85  A    between atoms: _198  and  _200
REMARK   86  A    between atoms: _200  and  _201
REMARK   87  A    between atoms: _200  and  _203
REMARK   88  A    between atoms: _203  and  _204
REMARK   89  A    between atoms: _208  and  _209
REMARK   90  A    between atoms: _214  and  _216
REMARK   91  A    between atoms: _216  and  _217
REMARK   92  A    between atoms: _216  and  _219
REMARK   93  A    between atoms: _219  and  _220
REMARK   94  A    between atoms: _224  and  _225
REMARK   95  A    between atoms: _230  and  _232
REMARK   96  A    between atoms: _232  and  _233
REMARK   97  A    between atoms: _232  and  _235
REMARK   98  A    between atoms: _238  and  _240
REMARK   99  A    between atoms: _240  and  _241
REMARK  100  A    between atoms: _240  and  _243
REMARK  101  A    between atoms: _243  and  _244
REMARK  102  A    between atoms: _249  and  _251
REMARK  103  A    between atoms: _251  and  _252
REMARK  104  A    between atoms: _251  and  _254
REMARK  105  A    between atoms: _254  and  _255
REMARK  106  A    between atoms: _258  and  _260
REMARK  107  A    between atoms: _260  and  _261
REMARK  108  A    between atoms: _260  and  _263
REMARK  109  A    between atoms: _263  and  _264
REMARK  110  A    between atoms: _267  and  _269
REMARK  111  A    between atoms: _269  and  _270
REMARK  112  A    between atoms: _272  and  _274
REMARK  113  A    between atoms: _274  and  _275
REMARK  114  A    between atoms: _274  and  _277
REMARK  115  A    between atoms: _277  and  _278
REMARK  116  A    between atoms: _278  and  _279
REMARK  117  A    between atoms: _279  and  _280
REMARK  118  A    between atoms: _289  and  _291
REMARK  119  A    between atoms: _291  and  _292
REMARK  120  A    between atoms: _291  and  _294
REMARK  121  A    between atoms: _294  and  _295
REMARK  122  A    between atoms: _300  and  _302
REMARK  123  A    between atoms: _302  and  _303
REMARK  124  A    between atoms: _302  and  _305
REMARK  125  A    between atoms: _305  and  _306
REMARK  126  A    between atoms: _306  and  _307
REMARK  127  A    between atoms: _307  and  _308
REMARK  128  A    between atoms: _317  and  _319
REMARK  129  A    between atoms: _319  and  _320
REMARK  130  A    between atoms: _319  and  _322
REMARK  131  A    between atoms: _322  and  _323
REMARK  132  A    between atoms: _326  and  _328
REMARK  133  A    between atoms: _328  and  _329
REMARK  134  A    between atoms: _328  and  _331
REMARK  135  A    between atoms: _331  and  _332
REMARK  136  A    between atoms: _335  and  _337
REMARK  137  A    between atoms: _337  and  _338
REMARK  138  A    between atoms: _337  and  _340
REMARK  139  A    between atoms: _340  and  _341
REMARK  140  A    between atoms: _344  and  _346
REMARK  141  A    between atoms: _346  and  _347
REMARK  142  A    between atoms: _346  and  _349
REMARK  143  A    between atoms: _349  and  _350
REMARK  144  A    between atoms: _353  and  _355
REMARK  145  A    between atoms: _355  and  _356
REMARK  146  A    between atoms: _355  and  _358
REMARK  147  A    between atoms: _358  and  _359
REMARK  148  A    between atoms: _362  and  _364
REMARK  149  A    between atoms: _364  and  _365
REMARK  150  A    between atoms: _367  and  _369
REMARK  151  A    between atoms: _369  and  _370
REMARK  152  A    between atoms: _373  and  _375
REMARK  153  A    between atoms: _375  and  _376
REMARK  154  A    between atoms: _375  and  _378
REMARK  155  A    between atoms: _378  and  _379
REMARK  156  A    between atoms: _382  and  _384
REMARK  157  A    between atoms: _384  and  _385
REMARK  158  A    between atoms: _384  and  _387
REMARK  159  A    between atoms: _387  and  _388
REMARK  160  A    between atoms: _391  and  _393
REMARK  161  A    between atoms: _393  and  _394
REMARK  162  A    between atoms: _393  and  _396
REMARK  163  A    between atoms: _396  and  _397
REMARK  164  A    between atoms: _400  and  _402
REMARK  165  A    between atoms: _402  and  _403
REMARK  166  A    between atoms: _402  and  _405
REMARK  167  A    between atoms: _408  and  _410
REMARK  168  A    between atoms: _410  and  _411
REMARK  169  A    between atoms: _410  and  _413
REMARK  170  A    between atoms: _413  and  _414
REMARK  171  A    between atoms: _414  and  _415
REMARK  172  A    between atoms: _415  and  _416
REMARK  173  A    between atoms: _416  and  _417
REMARK  174  A    between atoms: _421  and  _423
REMARK  175  A    between atoms: _423  and  _424
REMARK  176  A    between atoms: _423  and  _426
REMARK  177  A    between atoms: _426  and  _427
REMARK  178  A    between atoms: _427  and  _428
REMARK  179  A    between atoms: _430  and  _432
REMARK  180  A    between atoms: _432  and  _433
REMARK  181  A    between atoms: _432  and  _435
REMARK  182  A    between atoms: _435  and  _436
REMARK  183  A    between atoms: _439  and  _441
REMARK  184  A    between atoms: _441  and  _442
REMARK  185  A    between atoms: _444  and  _446
REMARK  186  A    between atoms: _446  and  _447
REMARK  187  A    between atoms: _449  and  _451
REMARK  188  A    between atoms: _451  and  _452
REMARK  189  A    between atoms: _451  and  _454
REMARK  190  A    between atoms: _454  and  _455
REMARK  191  A    between atoms: _458  and  _460
REMARK  192  A    between atoms: _460  and  _461
REMARK  193  A    between atoms: _463  and  _465
REMARK  194  A    between atoms: _465  and  _466
REMARK  195  A    between atoms: _468  and  _470
REMARK  196  A    between atoms: _470  and  _471
REMARK  197  A    between atoms: _470  and  _473
REMARK  198  A    between atoms: _473  and  _474
REMARK  199  A    between atoms: _480  and  _482
REMARK  200  A    between atoms: _482  and  _483
REMARK  201  A    between atoms: _482  and  _485
REMARK  202  A    between atoms: _485  and  _486
REMARK  203  A    between atoms: _489  and  _491
REMARK  204  A    between atoms: _491  and  _492
REMARK  205  A    between atoms: _491  and  _494
REMARK  206  A    between atoms: _497  and  _499
REMARK  207  A    between atoms: _499  and  _500
REMARK  208  A    between atoms: _499  and  _502
REMARK  209  A    between atoms: _502  and  _503
REMARK  210  A    between atoms: _506  and  _508
REMARK  211  A    between atoms: _508  and  _509
REMARK  212  A    between atoms: _508  and  _511
REMARK  213  A    between atoms: _511  and  _512
REMARK  214  A    between atoms: _516  and  _517
REMARK  215  A    between atoms: _522  and  _524
REMARK  216  A    between atoms: _524  and  _525
REMARK  217  A    between atoms: _524  and  _527
REMARK  218  A    between atoms: _530  and  _532
REMARK  219  A    between atoms: _532  and  _533
REMARK  220  A    between atoms: _532  and  _535
REMARK  221  A    between atoms: _535  and  _536
REMARK  222  A    between atoms: _541  and  _543
REMARK  223  A    between atoms: _543  and  _544
REMARK  224  A    between atoms: _543  and  _546
REMARK  225  A    between atoms: _546  and  _547
REMARK  226  A    between atoms: _550  and  _552
REMARK  227  A    between atoms: _552  and  _553
REMARK  228  A    between atoms: _552  and  _555
REMARK  229  A    between atoms: _555  and  _556
REMARK  230  A    between atoms: _559  and  _561
REMARK  231  A    between atoms: _561  and  _562
REMARK  232  A    between atoms: _564  and  _566
REMARK  233  A    between atoms: _566  and  _567
REMARK  234  A    between atoms: _566  and  _569
REMARK  235  A    between atoms: _569  and  _570
REMARK  236  A    between atoms: _570  and  _571
REMARK  237  A    between atoms: _571  and  _572
REMARK  238  A    between atoms: _581  and  _583
REMARK  239  A    between atoms: _583  and  _584
REMARK  240  A    between atoms: _583  and  _586
REMARK  241  A    between atoms: _586  and  _587
REMARK                            x       y       z     vdW  Elec       q    Type
REMARK                         _______ _______ _______ _____ _____    ______ ____
ROOT
ATOM      1  O   HOH     1      20.254 -21.587 -13.861  0.00  0.00    +0.000 OA
ENDROOT
TORSDOF 0
REMARK  Name = ../refined-set-2016/2pk6/2pk6_pocket.pdb
REMARK  241 active torsions:
REMARK  status: ('A' for Active; 'I' for Inactive)
REMARK    1  A    between atoms: _1  and  _3
REMARK    2  A    between atoms: _3  and  _4
REMARK    3  A    between atoms: _3  and  _6
REMARK    4  A    between atoms: _6  and  _7
REMARK    5  A    between atoms: _7  and  _8
REMARK    6  A    between atoms: _8  and  _9
REMARK    7  A    between atoms: _18  and  _20
REMARK    8  A    between atoms: _20  and  _21
REMARK    9  A    between atoms: _20  and  _23
REMARK   10  A    between atoms: _23  and  _24
REMARK   11  A    between atoms: _27  and  _29
REMARK   12  A    between atoms: _29  and  _30
REMARK   13  A    between atoms: _29  and  _32
REMARK   14  A    between atoms: _32  and  _33
REMARK   15  A    between atoms: _36  and  _38
REMARK   16  A    between atoms: _38  and  _39
REMARK   17  A    between atoms: _38  and  _41
REMARK   18  A    between atoms: _41  and  _42
REMARK   19  A    between atoms: _45  and  _47
REMARK   20  A    between atoms: _47  and  _48
REMARK   21  A    between atoms: _47  and  _50
REMARK   22  A    between atoms: _50  and  _51
REMARK   23  A    between atoms: _54  and  _56
REMARK   24  A    between atoms: _56  and  _57
REMARK   25  A    between atoms: _59  and  _61
REMARK   26  A    between atoms: _61  and  _62
REMARK   27  A    between atoms: _65  and  _67
REMARK   28  A    between atoms: _67  and  _68
REMARK   29  A    between atoms: _67  and  _70
REMARK   30  A    between atoms: _70  and  _71
REMARK   31  A    between atoms: _74  and  _76
REMARK   32  A    between atoms: _76  and  _77
REMARK   33  A    between atoms: _76  and  _79
REMARK   34  A    between atoms: _79  and  _80
REMARK   35  A    between atoms: _83  and  _85
REMARK   36  A    between atoms: _85  and  _86
REMARK   37  A    between atoms: _85  and  _88
REMARK   38  A    between atoms: _88  and  _89
REMARK   39  A    between atoms: _92  and  _94
REMARK   40  A    between atoms: _94  and  _95
REMARK   41  A    between atoms: _94  and  _97
REMARK   42  A    between atoms: _100  and  _102
REMARK   43  A    between atoms: _102  and  _103
REMARK   44  A    between atoms: _102  and  _105
REMARK   45  A    between atoms: _105  and  _106
REMARK   46  A    between atoms: _109  and  _111
REMARK   47  A    between atoms: _111  and  _112
REMARK   48  A    between atoms: _111  and  _114
REMARK   49  A    between atoms: _114  and  _115
REMARK   50  A    between atoms: _115  and  _116
REMARK   51  A    between atoms: _116  and  _117
REMARK   52  A    between atoms: _117  and  _118
REMARK   53  A    between atoms: _122  and  _124
REMARK   54  A    between atoms: _124  and  _125
REMARK   55  A    between atoms: _124  and  _127
REMARK   56  A    between atoms: _127  and  _128
REMARK   57  A    between atoms: _128  and  _129
REMARK   58  A    between atoms: _131  and  _133
REMARK   59  A    between atoms: _133  and  _134
REMARK   60  A    between atoms: _133  and  _136
REMARK   61  A    between atoms: _136  and  _137
REMARK   62  A    between atoms: _140  and  _142
REMARK   63  A    between atoms: _142  and  _143
REMARK   64  A    between atoms: _145  and  _147
REMARK   65  A    between atoms: _147  and  _148
REMARK   66  A    between atoms: _150  and  _152
REMARK   67  A    between atoms: _152  and  _153
REMARK   68  A    between atoms: _152  and  _155
REMARK   69  A    between atoms: _155  and  _156
REMARK   70  A    between atoms: _159  and  _161
REMARK   71  A    between atoms: _161  and  _162
REMARK   72  A    between atoms: _164  and  _166
REMARK   73  A    between atoms: _166  and  _167
REMARK   74  A    between atoms: _169  and  _171
REMARK   75  A    between atoms: _171  and  _172
REMARK   76  A    between atoms: _171  and  _174
REMARK   77  A    between atoms: _174  and  _175
REMARK   78  A    between atoms: _181  and  _183
REMARK   79  A    between atoms: _183  and  _184
REMARK   80  A    between atoms: _183  and  _186
REMARK   81  A    between atoms: _186  and  _187
REMARK   82  A    between atoms: _190  and  _192
REMARK   83  A    between atoms: _192  and  _193
REMARK   84  A    between atoms: _192  and  _195
REMARK   85  A    between atoms: _198  and  _200
REMARK   86  A    between atoms: _200  and  _201
REMARK   87  A    between atoms: _200  and  _203
REMARK   88  A    between atoms: _203  and  _204
REMARK   89  A    between atoms: _208  and  _209
REMARK   90  A    between atoms: _214  and  _216
REMARK   91  A    between atoms: _216  and  _217
REMARK   92  A    between atoms: _216  and  _219
REMARK   93  A    between atoms: _219  and  _220
REMARK   94  A    between atoms: _224  and  _225
REMARK   95  A    between atoms: _230  and  _232
REMARK   96  A    between atoms: _232  and  _233
REMARK   97  A    between atoms: _232  and  _235
REMARK   98  A    between atoms: _238  and  _240
REMARK   99  A    between atoms: _240  and  _241
REMARK  100  A    between atoms: _240  and  _243
REMARK  101  A    between atoms: _243  and  _244
REMARK  102  A    between atoms: _249  and  _251
REMARK  103  A    between atoms: _251  and  _252
REMARK  104  A    between atoms: _251  and  _254
REMARK  105  A    between atoms: _254  and  _255
REMARK  106  A    between atoms: _258  and  _260
REMARK  107  A    between atoms: _260  and  _261
REMARK  108  A    between atoms: _260  and  _263
REMARK  109  A    between atoms: _263  and  _264
REMARK  110  A    between atoms: _267  and  _269
REMARK  111  A    between atoms: _269  and  _270
REMARK  112  A    between atoms: _272  and  _274
REMARK  113  A    between atoms: _274  and  _275
REMARK  114  A    between atoms: _274  and  _277
REMARK  115  A    between atoms: _277  and  _278
REMARK  116  A    between atoms: _278  and  _279
REMARK  117  A    between atoms: _279  and  _280
REMARK  118  A    between atoms: _289  and  _291
REMARK  119  A    between atoms: _291  and  _292
REMARK  120  A    between atoms: _291  and  _294
REMARK  121  A    between atoms: _294  and  _295
REMARK  122  A    between atoms: _300  and  _302
REMARK  123  A    between atoms: _302  and  _303
REMARK  124  A    between atoms: _302  and  _305
REMARK  125  A    between atoms: _305  and  _306
REMARK  126  A    between atoms: _306  and  _307
REMARK  127  A    between atoms: _307  and  _308
REMARK  128  A    between atoms: _317  and  _319
REMARK  129  A    between atoms: _319  and  _320
REMARK  130  A    between atoms: _319  and  _322
REMARK  131  A    between atoms: _322  and  _323
REMARK  132  A    between atoms: _326  and  _328
REMARK  133  A    between atoms: _328  and  _329
REMARK  134  A    between atoms: _328  and  _331
REMARK  135  A    between atoms: _331  and  _332
REMARK  136  A    between atoms: _335  and  _337
REMARK  137  A    between atoms: _337  and  _338
REMARK  138  A    between atoms: _337  and  _340
REMARK  139  A    between atoms: _340  and  _341
REMARK  140  A    between atoms: _344  and  _346
REMARK  141  A    between atoms: _346  and  _347
REMARK  142  A    between atoms: _346  and  _349
REMARK  143  A    between atoms: _349  and  _350
REMARK  144  A    between atoms: _353  and  _355
REMARK  145  A    between atoms: _355  and  _356
REMARK  146  A    between atoms: _355  and  _358
REMARK  147  A    between atoms: _358  and  _359
REMARK  148  A    between atoms: _362  and  _364
REMARK  149  A    between atoms: _364  and  _365
REMARK  150  A    between atoms: _367  and  _369
REMARK  151  A    between atoms: _369  and  _370
REMARK  152  A    between atoms: _373  and  _375
REMARK  153  A    between atoms: _375  and  _376
REMARK  154  A    between atoms: _375  and  _378
REMARK  155  A    between atoms: _378  and  _379
REMARK  156  A    between atoms: _382  and  _384
REMARK  157  A    between atoms: _384  and  _385
REMARK  158  A    between atoms: _384  and  _387
REMARK  159  A    between atoms: _387  and  _388
REMARK  160  A    between atoms: _391  and  _393
REMARK  161  A    between atoms: _393  and  _394
REMARK  162  A    between atoms: _393  and  _396
REMARK  163  A    between atoms: _396  and  _397
REMARK  164  A    between atoms: _400  and  _402
REMARK  165  A    between atoms: _402  and  _403
REMARK  166  A    between atoms: _402  and  _405
REMARK  167  A    between atoms: _408  and  _410
REMARK  168  A    between atoms: _410  and  _411
REMARK  169  A    between atoms: _410  and  _413
REMARK  170  A    between atoms: _413  and  _414
REMARK  171  A    between atoms: _414  and  _415
REMARK  172  A    between atoms: _415  and  _416
REMARK  173  A    between atoms: _416  and  _417
REMARK  174  A    between atoms: _421  and  _423
REMARK  175  A    between atoms: _423  and  _424
REMARK  176  A    between atoms: _423  and  _426
REMARK  177  A    between atoms: _426  and  _427
REMARK  178  A    between atoms: _427  and  _428
REMARK  179  A    between atoms: _430  and  _432
REMARK  180  A    between atoms: _432  and  _433
REMARK  181  A    between atoms: _432  and  _435
REMARK  182  A    between atoms: _435  and  _436
REMARK  183  A    between atoms: _439  and  _441
REMARK  184  A    between atoms: _441  and  _442
REMARK  185  A    between atoms: _444  and  _446
REMARK  186  A    between atoms: _446  and  _447
REMARK  187  A    between atoms: _449  and  _451
REMARK  188  A    between atoms: _451  and  _452
REMARK  189  A    between atoms: _451  and  _454
REMARK  190  A    between atoms: _454  and  _455
REMARK  191  A    between atoms: _458  and  _460
REMARK  192  A    between atoms: _460  and  _461
REMARK  193  A    between atoms: _463  and  _465
REMARK  194  A    between atoms: _465  and  _466
REMARK  195  A    between atoms: _468  and  _470
REMARK  196  A    between atoms: _470  and  _471
REMARK  197  A    between atoms: _470  and  _473
REMARK  198  A    between atoms: _473  and  _474
REMARK  199  A    between atoms: _480  and  _482
REMARK  200  A    between atoms: _482  and  _483
REMARK  201  A    between atoms: _482  and  _485
REMARK  202  A    between atoms: _485  and  _486
REMARK  203  A    between atoms: _489  and  _491
REMARK  204  A    between atoms: _491  and  _492
REMARK  205  A    between atoms: _491  and  _494
REMARK  206  A    between atoms: _497  and  _499
REMARK  207  A    between atoms: _499  and  _500
REMARK  208  A    between atoms: _499  and  _502
REMARK  209  A    between atoms: _502  and  _503
REMARK  210  A    between atoms: _506  and  _508
REMARK  211  A    between atoms: _508  and  _509
REMARK  212  A    between atoms: _508  and  _511
REMARK  213  A    between atoms: _511  and  _512
REMARK  214  A    between atoms: _516  and  _517
REMARK  215  A    between atoms: _522  and  _524
REMARK  216  A    between atoms: _524  and  _525
REMARK  217  A    between atoms: _524  and  _527
REMARK  218  A    between atoms: _530  and  _532
REMARK  219  A    between atoms: _532  and  _533
REMARK  220  A    between atoms: _532  and  _535
REMARK  221  A    between atoms: _535  and  _536
REMARK  222  A    between atoms: _541  and  _543
REMARK  223  A    between atoms: _543  and  _544
REMARK  224  A    between atoms: _543  and  _546
REMARK  225  A    between atoms: _546  and  _547
REMARK  226  A    between atoms: _550  and  _552
REMARK  227  A    between atoms: _552  and  _553
REMARK  228  A    between atoms: _552  and  _555
REMARK  229  A    between atoms: _555  and  _556
REMARK  230  A    between atoms: _559  and  _561
REMARK  231  A    between atoms: _561  and  _562
REMARK  232  A    between atoms: _564  and  _566
REMARK  233  A    between atoms: _566  and  _567
REMARK  234  A    between atoms: _566  and  _569
REMARK  235  A    between atoms: _569  and  _570
REMARK  236  A    between atoms: _570  and  _571
REMARK  237  A    between atoms: _571  and  _572
REMARK  238  A    between atoms: _581  and  _583
REMARK  239  A    between atoms: _583  and  _584
REMARK  240  A    between atoms: _583  and  _586
REMARK  241  A    between atoms: _586  and  _587
REMARK                            x       y       z     vdW  Elec       q    Type
REMARK                         _______ _______ _______ _____ _____    ______ ____
ROOT
ATOM      1  O   HOH     1      18.016 -28.406 -16.918  0.00  0.00    +0.000 OA
ENDROOT
TORSDOF 0
REMARK  Name = ../refined-set-2016/2pk6/2pk6_pocket.pdb
REMARK  241 active torsions:
REMARK  status: ('A' for Active; 'I' for Inactive)
REMARK    1  A    between atoms: _1  and  _3
REMARK    2  A    between atoms: _3  and  _4
REMARK    3  A    between atoms: _3  and  _6
REMARK    4  A    between atoms: _6  and  _7
REMARK    5  A    between atoms: _7  and  _8
REMARK    6  A    between atoms: _8  and  _9
REMARK    7  A    between atoms: _18  and  _20
REMARK    8  A    between atoms: _20  and  _21
REMARK    9  A    between atoms: _20  and  _23
REMARK   10  A    between atoms: _23  and  _24
REMARK   11  A    between atoms: _27  and  _29
REMARK   12  A    between atoms: _29  and  _30
REMARK   13  A    between atoms: _29  and  _32
REMARK   14  A    between atoms: _32  and  _33
REMARK   15  A    between atoms: _36  and  _38
REMARK   16  A    between atoms: _38  and  _39
REMARK   17  A    between atoms: _38  and  _41
REMARK   18  A    between atoms: _41  and  _42
REMARK   19  A    between atoms: _45  and  _47
REMARK   20  A    between atoms: _47  and  _48
REMARK   21  A    between atoms: _47  and  _50
REMARK   22  A    between atoms: _50  and  _51
REMARK   23  A    between atoms: _54  and  _56
REMARK   24  A    between atoms: _56  and  _57
REMARK   25  A    between atoms: _59  and  _61
REMARK   26  A    between atoms: _61  and  _62
REMARK   27  A    between atoms: _65  and  _67
REMARK   28  A    between atoms: _67  and  _68
REMARK   29  A    between atoms: _67  and  _70
REMARK   30  A    between atoms: _70  and  _71
REMARK   31  A    between atoms: _74  and  _76
REMARK   32  A    between atoms: _76  and  _77
REMARK   33  A    between atoms: _76  and  _79
REMARK   34  A    between atoms: _79  and  _80
REMARK   35  A    between atoms: _83  and  _85
REMARK   36  A    between atoms: _85  and  _86
REMARK   37  A    between atoms: _85  and  _88
REMARK   38  A    between atoms: _88  and  _89
REMARK   39  A    between atoms: _92  and  _94
REMARK   40  A    between atoms: _94  and  _95
REMARK   41  A    between atoms: _94  and  _97
REMARK   42  A    between atoms: _100  and  _102
REMARK   43  A    between atoms: _102  and  _103
REMARK   44  A    between atoms: _102  and  _105
REMARK   45  A    between atoms: _105  and  _106
REMARK   46  A    between atoms: _109  and  _111
REMARK   47  A    between atoms: _111  and  _112
REMARK   48  A    between atoms: _111  and  _114
REMARK   49  A    between atoms: _114  and  _115
REMARK   50  A    between atoms: _115  and  _116
REMARK   51  A    between atoms: _116  and  _117
REMARK   52  A    between atoms: _117  and  _118
REMARK   53  A    between atoms: _122  and  _124
REMARK   54  A    between atoms: _124  and  _125
REMARK   55  A    between atoms: _124  and  _127
REMARK   56  A    between atoms: _127  and  _128
REMARK   57  A    between atoms: _128  and  _129
REMARK   58  A    between atoms: _131  and  _133
REMARK   59  A    between atoms: _133  and  _134
REMARK   60  A    between atoms: _133  and  _136
REMARK   61  A    between atoms: _136  and  _137
REMARK   62  A    between atoms: _140  and  _142
REMARK   63  A    between atoms: _142  and  _143
REMARK   64  A    between atoms: _145  and  _147
REMARK   65  A    between atoms: _147  and  _148
REMARK   66  A    between atoms: _150  and  _152
REMARK   67  A    between atoms: _152  and  _153
REMARK   68  A    between atoms: _152  and  _155
REMARK   69  A    between atoms: _155  and  _156
REMARK   70  A    between atoms: _159  and  _161
REMARK   71  A    between atoms: _161  and  _162
REMARK   72  A    between atoms: _164  and  _166
REMARK   73  A    between atoms: _166  and  _167
REMARK   74  A    between atoms: _169  and  _171
REMARK   75  A    between atoms: _171  and  _172
REMARK   76  A    between atoms: _171  and  _174
REMARK   77  A    between atoms: _174  and  _175
REMARK   78  A    between atoms: _181  and  _183
REMARK   79  A    between atoms: _183  and  _184
REMARK   80  A    between atoms: _183  and  _186
REMARK   81  A    between atoms: _186  and  _187
REMARK   82  A    between atoms: _190  and  _192
REMARK   83  A    between atoms: _192  and  _193
REMARK   84  A    between atoms: _192  and  _195
REMARK   85  A    between atoms: _198  and  _200
REMARK   86  A    between atoms: _200  and  _201
REMARK   87  A    between atoms: _200  and  _203
REMARK   88  A    between atoms: _203  and  _204
REMARK   89  A    between atoms: _208  and  _209
REMARK   90  A    between atoms: _214  and  _216
REMARK   91  A    between atoms: _216  and  _217
REMARK   92  A    between atoms: _216  and  _219
REMARK   93  A    between atoms: _219  and  _220
REMARK   94  A    between atoms: _224  and  _225
REMARK   95  A    between atoms: _230  and  _232
REMARK   96  A    between atoms: _232  and  _233
REMARK   97  A    between atoms: _232  and  _235
REMARK   98  A    between atoms: _238  and  _240
REMARK   99  A    between atoms: _240  and  _241
REMARK  100  A    between atoms: _240  and  _243
REMARK  101  A    between atoms: _243  and  _244
REMARK  102  A    between atoms: _249  and  _251
REMARK  103  A    between atoms: _251  and  _252
REMARK  104  A    between atoms: _251  and  _254
REMARK  105  A    between atoms: _254  and  _255
REMARK  106  A    between atoms: _258  and  _260
REMARK  107  A    between atoms: _260  and  _261
REMARK  108  A    between atoms: _260  and  _263
REMARK  109  A    between atoms: _263  and  _264
REMARK  110  A    between atoms: _267  and  _269
REMARK  111  A    between atoms: _269  and  _270
REMARK  112  A    between atoms: _272  and  _274
REMARK  113  A    between atoms: _274  and  _275
REMARK  114  A    between atoms: _274  and  _277
REMARK  115  A    between atoms: _277  and  _278
REMARK  116  A    between atoms: _278  and  _279
REMARK  117  A    between atoms: _279  and  _280
REMARK  118  A    between atoms: _289  and  _291
REMARK  119  A    between atoms: _291  and  _292
REMARK  120  A    between atoms: _291  and  _294
REMARK  121  A    between atoms: _294  and  _295
REMARK  122  A    between atoms: _300  and  _302
REMARK  123  A    between atoms: _302  and  _303
REMARK  124  A    between atoms: _302  and  _305
REMARK  125  A    between atoms: _305  and  _306
REMARK  126  A    between atoms: _306  and  _307
REMARK  127  A    between atoms: _307  and  _308
REMARK  128  A    between atoms: _317  and  _319
REMARK  129  A    between atoms: _319  and  _320
REMARK  130  A    between atoms: _319  and  _322
REMARK  131  A    between atoms: _322  and  _323
REMARK  132  A    between atoms: _326  and  _328
REMARK  133  A    between atoms: _328  and  _329
REMARK  134  A    between atoms: _328  and  _331
REMARK  135  A    between atoms: _331  and  _332
REMARK  136  A    between atoms: _335  and  _337
REMARK  137  A    between atoms: _337  and  _338
REMARK  138  A    between atoms: _337  and  _340
REMARK  139  A    between atoms: _340  and  _341
REMARK  140  A    between atoms: _344  and  _346
REMARK  141  A    between atoms: _346  and  _347
REMARK  142  A    between atoms: _346  and  _349
REMARK  143  A    between atoms: _349  and  _350
REMARK  144  A    between atoms: _353  and  _355
REMARK  145  A    between atoms: _355  and  _356
REMARK  146  A    between atoms: _355  and  _358
REMARK  147  A    between atoms: _358  and  _359
REMARK  148  A    between atoms: _362  and  _364
REMARK  149  A    between atoms: _364  and  _365
REMARK  150  A    between atoms: _367  and  _369
REMARK  151  A    between atoms: _369  and  _370
REMARK  152  A    between atoms: _373  and  _375
REMARK  153  A    between atoms: _375  and  _376
REMARK  154  A    between atoms: _375  and  _378
REMARK  155  A    between atoms: _378  and  _379
REMARK  156  A    between atoms: _382  and  _384
REMARK  157  A    between atoms: _384  and  _385
REMARK  158  A    between atoms: _384  and  _387
REMARK  159  A    between atoms: _387  and  _388
REMARK  160  A    between atoms: _391  and  _393
REMARK  161  A    between atoms: _393  and  _394
REMARK  162  A    between atoms: _393  and  _396
REMARK  163  A    between atoms: _396  and  _397
REMARK  164  A    between atoms: _400  and  _402
REMARK  165  A    between atoms: _402  and  _403
REMARK  166  A    between atoms: _402  and  _405
REMARK  167  A    between atoms: _408  and  _410
REMARK  168  A    between atoms: _410  and  _411
REMARK  169  A    between atoms: _410  and  _413
REMARK  170  A    between atoms: _413  and  _414
REMARK  171  A    between atoms: _414  and  _415
REMARK  172  A    between atoms: _415  and  _416
REMARK  173  A    between atoms: _416  and  _417
REMARK  174  A    between atoms: _421  and  _423
REMARK  175  A    between atoms: _423  and  _424
REMARK  176  A    between atoms: _423  and  _426
REMARK  177  A    between atoms: _426  and  _427
REMARK  178  A    between atoms: _427  and  _428
REMARK  179  A    between atoms: _430  and  _432
REMARK  180  A    between atoms: _432  and  _433
REMARK  181  A    between atoms: _432  and  _435
REMARK  182  A    between atoms: _435  and  _436
REMARK  183  A    between atoms: _439  and  _441
REMARK  184  A    between atoms: _441  and  _442
REMARK  185  A    between atoms: _444  and  _446
REMARK  186  A    between atoms: _446  and  _447
REMARK  187  A    between atoms: _449  and  _451
REMARK  188  A    between atoms: _451  and  _452
REMARK  189  A    between atoms: _451  and  _454
REMARK  190  A    between atoms: _454  and  _455
REMARK  191  A    between atoms: _458  and  _460
REMARK  192  A    between atoms: _460  and  _461
REMARK  193  A    between atoms: _463  and  _465
REMARK  194  A    between atoms: _465  and  _466
REMARK  195  A    between atoms: _468  and  _470
REMARK  196  A    between atoms: _470  and  _471
REMARK  197  A    between atoms: _470  and  _473
REMARK  198  A    between atoms: _473  and  _474
REMARK  199  A    between atoms: _480  and  _482
REMARK  200  A    between atoms: _482  and  _483
REMARK  201  A    between atoms: _482  and  _485
REMARK  202  A    between atoms: _485  and  _486
REMARK  203  A    between atoms: _489  and  _491
REMARK  204  A    between atoms: _491  and  _492
REMARK  205  A    between atoms: _491  and  _494
REMARK  206  A    between atoms: _497  and  _499
REMARK  207  A    between atoms: _499  and  _500
REMARK  208  A    between atoms: _499  and  _502
REMARK  209  A    between atoms: _502  and  _503
REMARK  210  A    between atoms: _506  and  _508
REMARK  211  A    between atoms: _508  and  _509
REMARK  212  A    between atoms: _508  and  _511
REMARK  213  A    between atoms: _511  and  _512
REMARK  214  A    between atoms: _516  and  _517
REMARK  215  A    between atoms: _522  and  _524
REMARK  216  A    between atoms: _524  and  _525
REMARK  217  A    between atoms: _524  and  _527
REMARK  218  A    between atoms: _530  and  _532
REMARK  219  A    between atoms: _532  and  _533
REMARK  220  A    between atoms: _532  and  _535
REMARK  221  A    between atoms: _535  and  _536
REMARK  222  A    between atoms: _541  and  _543
REMARK  223  A    between atoms: _543  and  _544
REMARK  224  A    between atoms: _543  and  _546
REMARK  225  A    between atoms: _546  and  _547
REMARK  226  A    between atoms: _550  and  _552
REMARK  227  A    between atoms: _552  and  _553
REMARK  228  A    between atoms: _552  and  _555
REMARK  229  A    between atoms: _555  and  _556
REMARK  230  A    between atoms: _559  and  _561
REMARK  231  A    between atoms: _561  and  _562
REMARK  232  A    between atoms: _564  and  _566
REMARK  233  A    between atoms: _566  and  _567
REMARK  234  A    between atoms: _566  and  _569
REMARK  235  A    between atoms: _569  and  _570
REMARK  236  A    between atoms: _570  and  _571
REMARK  237  A    between atoms: _571  and  _572
REMARK  238  A    between atoms: _581  and  _583
REMARK  239  A    between atoms: _583  and  _584
REMARK  240  A    between atoms: _583  and  _586
REMARK  241  A    between atoms: _586  and  _587
REMARK                            x       y       z     vdW  Elec       q    Type
REMARK                         _______ _______ _______ _____ _____    ______ ____
ROOT
ATOM      1  O   HOH     1      22.237 -27.517 -25.650  0.00  0.00    +0.000 OA
ENDROOT
TORSDOF 0
REMARK  Name = ../refined-set-2016/2pk6/2pk6_pocket.pdb
REMARK  241 active torsions:
REMARK  status: ('A' for Active; 'I' for Inactive)
REMARK    1  A    between atoms: _1  and  _3
REMARK    2  A    between atoms: _3  and  _4
REMARK    3  A    between atoms: _3  and  _6
REMARK    4  A    between atoms: _6  and  _7
REMARK    5  A    between atoms: _7  and  _8
REMARK    6  A    between atoms: _8  and  _9
REMARK    7  A    between atoms: _18  and  _20
REMARK    8  A    between atoms: _20  and  _21
REMARK    9  A    between atoms: _20  and  _23
REMARK   10  A    between atoms: _23  and  _24
REMARK   11  A    between atoms: _27  and  _29
REMARK   12  A    between atoms: _29  and  _30
REMARK   13  A    between atoms: _29  and  _32
REMARK   14  A    between atoms: _32  and  _33
REMARK   15  A    between atoms: _36  and  _38
REMARK   16  A    between atoms: _38  and  _39
REMARK   17  A    between atoms: _38  and  _41
REMARK   18  A    between atoms: _41  and  _42
REMARK   19  A    between atoms: _45  and  _47
REMARK   20  A    between atoms: _47  and  _48
REMARK   21  A    between atoms: _47  and  _50
REMARK   22  A    between atoms: _50  and  _51
REMARK   23  A    between atoms: _54  and  _56
REMARK   24  A    between atoms: _56  and  _57
REMARK   25  A    between atoms: _59  and  _61
REMARK   26  A    between atoms: _61  and  _62
REMARK   27  A    between atoms: _65  and  _67
REMARK   28  A    between atoms: _67  and  _68
REMARK   29  A    between atoms: _67  and  _70
REMARK   30  A    between atoms: _70  and  _71
REMARK   31  A    between atoms: _74  and  _76
REMARK   32  A    between atoms: _76  and  _77
REMARK   33  A    between atoms: _76  and  _79
REMARK   34  A    between atoms: _79  and  _80
REMARK   35  A    between atoms: _83  and  _85
REMARK   36  A    between atoms: _85  and  _86
REMARK   37  A    between atoms: _85  and  _88
REMARK   38  A    between atoms: _88  and  _89
REMARK   39  A    between atoms: _92  and  _94
REMARK   40  A    between atoms: _94  and  _95
REMARK   41  A    between atoms: _94  and  _97
REMARK   42  A    between atoms: _100  and  _102
REMARK   43  A    between atoms: _102  and  _103
REMARK   44  A    between atoms: _102  and  _105
REMARK   45  A    between atoms: _105  and  _106
REMARK   46  A    between atoms: _109  and  _111
REMARK   47  A    between atoms: _111  and  _112
REMARK   48  A    between atoms: _111  and  _114
REMARK   49  A    between atoms: _114  and  _115
REMARK   50  A    between atoms: _115  and  _116
REMARK   51  A    between atoms: _116  and  _117
REMARK   52  A    between atoms: _117  and  _118
REMARK   53  A    between atoms: _122  and  _124
REMARK   54  A    between atoms: _124  and  _125
REMARK   55  A    between atoms: _124  and  _127
REMARK   56  A    between atoms: _127  and  _128
REMARK   57  A    between atoms: _128  and  _129
REMARK   58  A    between atoms: _131  and  _133
REMARK   59  A    between atoms: _133  and  _134
REMARK   60  A    between atoms: _133  and  _136
REMARK   61  A    between atoms: _136  and  _137
REMARK   62  A    between atoms: _140  and  _142
REMARK   63  A    between atoms: _142  and  _143
REMARK   64  A    between atoms: _145  and  _147
REMARK   65  A    between atoms: _147  and  _148
REMARK   66  A    between atoms: _150  and  _152
REMARK   67  A    between atoms: _152  and  _153
REMARK   68  A    between atoms: _152  and  _155
REMARK   69  A    between atoms: _155  and  _156
REMARK   70  A    between atoms: _159  and  _161
REMARK   71  A    between atoms: _161  and  _162
REMARK   72  A    between atoms: _164  and  _166
REMARK   73  A    between atoms: _166  and  _167
REMARK   74  A    between atoms: _169  and  _171
REMARK   75  A    between atoms: _171  and  _172
REMARK   76  A    between atoms: _171  and  _174
REMARK   77  A    between atoms: _174  and  _175
REMARK   78  A    between atoms: _181  and  _183
REMARK   79  A    between atoms: _183  and  _184
REMARK   80  A    between atoms: _183  and  _186
REMARK   81  A    between atoms: _186  and  _187
REMARK   82  A    between atoms: _190  and  _192
REMARK   83  A    between atoms: _192  and  _193
REMARK   84  A    between atoms: _192  and  _195
REMARK   85  A    between atoms: _198  and  _200
REMARK   86  A    between atoms: _200  and  _201
REMARK   87  A    between atoms: _200  and  _203
REMARK   88  A    between atoms: _203  and  _204
REMARK   89  A    between atoms: _208  and  _209
REMARK   90  A    between atoms: _214  and  _216
REMARK   91  A    between atoms: _216  and  _217
REMARK   92  A    between atoms: _216  and  _219
REMARK   93  A    between atoms: _219  and  _220
REMARK   94  A    between atoms: _224  and  _225
REMARK   95  A    between atoms: _230  and  _232
REMARK   96  A    between atoms: _232  and  _233
REMARK   97  A    between atoms: _232  and  _235
REMARK   98  A    between atoms: _238  and  _240
REMARK   99  A    between atoms: _240  and  _241
REMARK  100  A    between atoms: _240  and  _243
REMARK  101  A    between atoms: _243  and  _244
REMARK  102  A    between atoms: _249  and  _251
REMARK  103  A    between atoms: _251  and  _252
REMARK  104  A    between atoms: _251  and  _254
REMARK  105  A    between atoms: _254  and  _255
REMARK  106  A    between atoms: _258  and  _260
REMARK  107  A    between atoms: _260  and  _261
REMARK  108  A    between atoms: _260  and  _263
REMARK  109  A    between atoms: _263  and  _264
REMARK  110  A    between atoms: _267  and  _269
REMARK  111  A    between atoms: _269  and  _270
REMARK  112  A    between atoms: _272  and  _274
REMARK  113  A    between atoms: _274  and  _275
REMARK  114  A    between atoms: _274  and  _277
REMARK  115  A    between atoms: _277  and  _278
REMARK  116  A    between atoms: _278  and  _279
REMARK  117  A    between atoms: _279  and  _280
REMARK  118  A    between atoms: _289  and  _291
REMARK  119  A    between atoms: _291  and  _292
REMARK  120  A    between atoms: _291  and  _294
REMARK  121  A    between atoms: _294  and  _295
REMARK  122  A    between atoms: _300  and  _302
REMARK  123  A    between atoms: _302  and  _303
REMARK  124  A    between atoms: _302  and  _305
REMARK  125  A    between atoms: _305  and  _306
REMARK  126  A    between atoms: _306  and  _307
REMARK  127  A    between atoms: _307  and  _308
REMARK  128  A    between atoms: _317  and  _319
REMARK  129  A    between atoms: _319  and  _320
REMARK  130  A    between atoms: _319  and  _322
REMARK  131  A    between atoms: _322  and  _323
REMARK  132  A    between atoms: _326  and  _328
REMARK  133  A    between atoms: _328  and  _329
REMARK  134  A    between atoms: _328  and  _331
REMARK  135  A    between atoms: _331  and  _332
REMARK  136  A    between atoms: _335  and  _337
REMARK  137  A    between atoms: _337  and  _338
REMARK  138  A    between atoms: _337  and  _340
REMARK  139  A    between atoms: _340  and  _341
REMARK  140  A    between atoms: _344  and  _346
REMARK  141  A    between atoms: _346  and  _347
REMARK  142  A    between atoms: _346  and  _349
REMARK  143  A    between atoms: _349  and  _350
REMARK  144  A    between atoms: _353  and  _355
REMARK  145  A    between atoms: _355  and  _356
REMARK  146  A    between atoms: _355  and  _358
REMARK  147  A    between atoms: _358  and  _359
REMARK  148  A    between atoms: _362  and  _364
REMARK  149  A    between atoms: _364  and  _365
REMARK  150  A    between atoms: _367  and  _369
REMARK  151  A    between atoms: _369  and  _370
REMARK  152  A    between atoms: _373  and  _375
REMARK  153  A    between atoms: _375  and  _376
REMARK  154  A    between atoms: _375  and  _378
REMARK  155  A    between atoms: _378  and  _379
REMARK  156  A    between atoms: _382  and  _384
REMARK  157  A    between atoms: _384  and  _385
REMARK  158  A    between atoms: _384  and  _387
REMARK  159  A    between atoms: _387  and  _388
REMARK  160  A    between atoms: _391  and  _393
REMARK  161  A    between atoms: _393  and  _394
REMARK  162  A    between atoms: _393  and  _396
REMARK  163  A    between atoms: _396  and  _397
REMARK  164  A    between atoms: _400  and  _402
REMARK  165  A    between atoms: _402  and  _403
REMARK  166  A    between atoms: _402  and  _405
REMARK  167  A    between atoms: _408  and  _410
REMARK  168  A    between atoms: _410  and  _411
REMARK  169  A    between atoms: _410  and  _413
REMARK  170  A    between atoms: _413  and  _414
REMARK  171  A    between atoms: _414  and  _415
REMARK  172  A    between atoms: _415  and  _416
REMARK  173  A    between atoms: _416  and  _417
REMARK  174  A    between atoms: _421  and  _423
REMARK  175  A    between atoms: _423  and  _424
REMARK  176  A    between atoms: _423  and  _426
REMARK  177  A    between atoms: _426  and  _427
REMARK  178  A    between atoms: _427  and  _428
REMARK  179  A    between atoms: _430  and  _432
REMARK  180  A    between atoms: _432  and  _433
REMARK  181  A    between atoms: _432  and  _435
REMARK  182  A    between atoms: _435  and  _436
REMARK  183  A    between atoms: _439  and  _441
REMARK  184  A    between atoms: _441  and  _442
REMARK  185  A    between atoms: _444  and  _446
REMARK  186  A    between atoms: _446  and  _447
REMARK  187  A    between atoms: _449  and  _451
REMARK  188  A    between atoms: _451  and  _452
REMARK  189  A    between atoms: _451  and  _454
REMARK  190  A    between atoms: _454  and  _455
REMARK  191  A    between atoms: _458  and  _460
REMARK  192  A    between atoms: _460  and  _461
REMARK  193  A    between atoms: _463  and  _465
REMARK  194  A    between atoms: _465  and  _466
REMARK  195  A    between atoms: _468  and  _470
REMARK  196  A    between atoms: _470  and  _471
REMARK  197  A    between atoms: _470  and  _473
REMARK  198  A    between atoms: _473  and  _474
REMARK  199  A    between atoms: _480  and  _482
REMARK  200  A    between atoms: _482  and  _483
REMARK  201  A    between atoms: _482  and  _485
REMARK  202  A    between atoms: _485  and  _486
REMARK  203  A    between atoms: _489  and  _491
REMARK  204  A    between atoms: _491  and  _492
REMARK  205  A    between atoms: _491  and  _494
REMARK  206  A    between atoms: _497  and  _499
REMARK  207  A    between atoms: _499  and  _500
REMARK  208  A    between atoms: _499  and  _502
REMARK  209  A    between atoms: _502  and  _503
REMARK  210  A    between atoms: _506  and  _508
REMARK  211  A    between atoms: _508  and  _509
REMARK  212  A    between atoms: _508  and  _511
REMARK  213  A    between atoms: _511  and  _512
REMARK  214  A    between atoms: _516  and  _517
REMARK  215  A    between atoms: _522  and  _524
REMARK  216  A    between atoms: _524  and  _525
REMARK  217  A    between atoms: _524  and  _527
REMARK  218  A    between atoms: _530  and  _532
REMARK  219  A    between atoms: _532  and  _533
REMARK  220  A    between atoms: _532  and  _535
REMARK  221  A    between atoms: _535  and  _536
REMARK  222  A    between atoms: _541  and  _543
REMARK  223  A    between atoms: _543  and  _544
REMARK  224  A    between atoms: _543  and  _546
REMARK  225  A    between atoms: _546  and  _547
REMARK  226  A    between atoms: _550  and  _552
REMARK  227  A    between atoms: _552  and  _553
REMARK  228  A    between atoms: _552  and  _555
REMARK  229  A    between atoms: _555  and  _556
REMARK  230  A    between atoms: _559  and  _561
REMARK  231  A    between atoms: _561  and  _562
REMARK  232  A    between atoms: _564  and  _566
REMARK  233  A    between atoms: _566  and  _567
REMARK  234  A    between atoms: _566  and  _569
REMARK  235  A    between atoms: _569  and  _570
REMARK  236  A    between atoms: _570  and  _571
REMARK  237  A    between atoms: _571  and  _572
REMARK  238  A    between atoms: _581  and  _583
REMARK  239  A    between atoms: _583  and  _584
REMARK  240  A    between atoms: _583  and  _586
REMARK  241  A    between atoms: _586  and  _587
REMARK                            x       y       z     vdW  Elec       q    Type
REMARK                         _______ _______ _______ _____ _____    ______ ____
ROOT
ATOM      1  O   HOH     1       7.156 -15.931 -22.921  0.00  0.00    +0.000 OA
ENDROOT
TORSDOF 0
REMARK  Name = ../refined-set-2016/2pk6/2pk6_pocket.pdb
REMARK  241 active torsions:
REMARK  status: ('A' for Active; 'I' for Inactive)
REMARK    1  A    between atoms: _1  and  _3
REMARK    2  A    between atoms: _3  and  _4
REMARK    3  A    between atoms: _3  and  _6
REMARK    4  A    between atoms: _6  and  _7
REMARK    5  A    between atoms: _7  and  _8
REMARK    6  A    between atoms: _8  and  _9
REMARK    7  A    between atoms: _18  and  _20
REMARK    8  A    between atoms: _20  and  _21
REMARK    9  A    between atoms: _20  and  _23
REMARK   10  A    between atoms: _23  and  _24
REMARK   11  A    between atoms: _27  and  _29
REMARK   12  A    between atoms: _29  and  _30
REMARK   13  A    between atoms: _29  and  _32
REMARK   14  A    between atoms: _32  and  _33
REMARK   15  A    between atoms: _36  and  _38
REMARK   16  A    between atoms: _38  and  _39
REMARK   17  A    between atoms: _38  and  _41
REMARK   18  A    between atoms: _41  and  _42
REMARK   19  A    between atoms: _45  and  _47
REMARK   20  A    between atoms: _47  and  _48
REMARK   21  A    between atoms: _47  and  _50
REMARK   22  A    between atoms: _50  and  _51
REMARK   23  A    between atoms: _54  and  _56
REMARK   24  A    between atoms: _56  and  _57
REMARK   25  A    between atoms: _59  and  _61
REMARK   26  A    between atoms: _61  and  _62
REMARK   27  A    between atoms: _65  and  _67
REMARK   28  A    between atoms: _67  and  _68
REMARK   29  A    between atoms: _67  and  _70
REMARK   30  A    between atoms: _70  and  _71
REMARK   31  A    between atoms: _74  and  _76
REMARK   32  A    between atoms: _76  and  _77
REMARK   33  A    between atoms: _76  and  _79
REMARK   34  A    between atoms: _79  and  _80
REMARK   35  A    between atoms: _83  and  _85
REMARK   36  A    between atoms: _85  and  _86
REMARK   37  A    between atoms: _85  and  _88
REMARK   38  A    between atoms: _88  and  _89
REMARK   39  A    between atoms: _92  and  _94
REMARK   40  A    between atoms: _94  and  _95
REMARK   41  A    between atoms: _94  and  _97
REMARK   42  A    between atoms: _100  and  _102
REMARK   43  A    between atoms: _102  and  _103
REMARK   44  A    between atoms: _102  and  _105
REMARK   45  A    between atoms: _105  and  _106
REMARK   46  A    between atoms: _109  and  _111
REMARK   47  A    between atoms: _111  and  _112
REMARK   48  A    between atoms: _111  and  _114
REMARK   49  A    between atoms: _114  and  _115
REMARK   50  A    between atoms: _115  and  _116
REMARK   51  A    between atoms: _116  and  _117
REMARK   52  A    between atoms: _117  and  _118
REMARK   53  A    between atoms: _122  and  _124
REMARK   54  A    between atoms: _124  and  _125
REMARK   55  A    between atoms: _124  and  _127
REMARK   56  A    between atoms: _127  and  _128
REMARK   57  A    between atoms: _128  and  _129
REMARK   58  A    between atoms: _131  and  _133
REMARK   59  A    between atoms: _133  and  _134
REMARK   60  A    between atoms: _133  and  _136
REMARK   61  A    between atoms: _136  and  _137
REMARK   62  A    between atoms: _140  and  _142
REMARK   63  A    between atoms: _142  and  _143
REMARK   64  A    between atoms: _145  and  _147
REMARK   65  A    between atoms: _147  and  _148
REMARK   66  A    between atoms: _150  and  _152
REMARK   67  A    between atoms: _152  and  _153
REMARK   68  A    between atoms: _152  and  _155
REMARK   69  A    between atoms: _155  and  _156
REMARK   70  A    between atoms: _159  and  _161
REMARK   71  A    between atoms: _161  and  _162
REMARK   72  A    between atoms: _164  and  _166
REMARK   73  A    between atoms: _166  and  _167
REMARK   74  A    between atoms: _169  and  _171
REMARK   75  A    between atoms: _171  and  _172
REMARK   76  A    between atoms: _171  and  _174
REMARK   77  A    between atoms: _174  and  _175
REMARK   78  A    between atoms: _181  and  _183
REMARK   79  A    between atoms: _183  and  _184
REMARK   80  A    between atoms: _183  and  _186
REMARK   81  A    between atoms: _186  and  _187
REMARK   82  A    between atoms: _190  and  _192
REMARK   83  A    between atoms: _192  and  _193
REMARK   84  A    between atoms: _192  and  _195
REMARK   85  A    between atoms: _198  and  _200
REMARK   86  A    between atoms: _200  and  _201
REMARK   87  A    between atoms: _200  and  _203
REMARK   88  A    between atoms: _203  and  _204
REMARK   89  A    between atoms: _208  and  _209
REMARK   90  A    between atoms: _214  and  _216
REMARK   91  A    between atoms: _216  and  _217
REMARK   92  A    between atoms: _216  and  _219
REMARK   93  A    between atoms: _219  and  _220
REMARK   94  A    between atoms: _224  and  _225
REMARK   95  A    between atoms: _230  and  _232
REMARK   96  A    between atoms: _232  and  _233
REMARK   97  A    between atoms: _232  and  _235
REMARK   98  A    between atoms: _238  and  _240
REMARK   99  A    between atoms: _240  and  _241
REMARK  100  A    between atoms: _240  and  _243
REMARK  101  A    between atoms: _243  and  _244
REMARK  102  A    between atoms: _249  and  _251
REMARK  103  A    between atoms: _251  and  _252
REMARK  104  A    between atoms: _251  and  _254
REMARK  105  A    between atoms: _254  and  _255
REMARK  106  A    between atoms: _258  and  _260
REMARK  107  A    between atoms: _260  and  _261
REMARK  108  A    between atoms: _260  and  _263
REMARK  109  A    between atoms: _263  and  _264
REMARK  110  A    between atoms: _267  and  _269
REMARK  111  A    between atoms: _269  and  _270
REMARK  112  A    between atoms: _272  and  _274
REMARK  113  A    between atoms: _274  and  _275
REMARK  114  A    between atoms: _274  and  _277
REMARK  115  A    between atoms: _277  and  _278
REMARK  116  A    between atoms: _278  and  _279
REMARK  117  A    between atoms: _279  and  _280
REMARK  118  A    between atoms: _289  and  _291
REMARK  119  A    between atoms: _291  and  _292
REMARK  120  A    between atoms: _291  and  _294
REMARK  121  A    between atoms: _294  and  _295
REMARK  122  A    between atoms: _300  and  _302
REMARK  123  A    between atoms: _302  and  _303
REMARK  124  A    between atoms: _302  and  _305
REMARK  125  A    between atoms: _305  and  _306
REMARK  126  A    between atoms: _306  and  _307
REMARK  127  A    between atoms: _307  and  _308
REMARK  128  A    between atoms: _317  and  _319
REMARK  129  A    between atoms: _319  and  _320
REMARK  130  A    between atoms: _319  and  _322
REMARK  131  A    between atoms: _322  and  _323
REMARK  132  A    between atoms: _326  and  _328
REMARK  133  A    between atoms: _328  and  _329
REMARK  134  A    between atoms: _328  and  _331
REMARK  135  A    between atoms: _331  and  _332
REMARK  136  A    between atoms: _335  and  _337
REMARK  137  A    between atoms: _337  and  _338
REMARK  138  A    between atoms: _337  and  _340
REMARK  139  A    between atoms: _340  and  _341
REMARK  140  A    between atoms: _344  and  _346
REMARK  141  A    between atoms: _346  and  _347
REMARK  142  A    between atoms: _346  and  _349
REMARK  143  A    between atoms: _349  and  _350
REMARK  144  A    between atoms: _353  and  _355
REMARK  145  A    between atoms: _355  and  _356
REMARK  146  A    between atoms: _355  and  _358
REMARK  147  A    between atoms: _358  and  _359
REMARK  148  A    between atoms: _362  and  _364
REMARK  149  A    between atoms: _364  and  _365
REMARK  150  A    between atoms: _367  and  _369
REMARK  151  A    between atoms: _369  and  _370
REMARK  152  A    between atoms: _373  and  _375
REMARK  153  A    between atoms: _375  and  _376
REMARK  154  A    between atoms: _375  and  _378
REMARK  155  A    between atoms: _378  and  _379
REMARK  156  A    between atoms: _382  and  _384
REMARK  157  A    between atoms: _384  and  _385
REMARK  158  A    between atoms: _384  and  _387
REMARK  159  A    between atoms: _387  and  _388
REMARK  160  A    between atoms: _391  and  _393
REMARK  161  A    between atoms: _393  and  _394
REMARK  162  A    between atoms: _393  and  _396
REMARK  163  A    between atoms: _396  and  _397
REMARK  164  A    between atoms: _400  and  _402
REMARK  165  A    between atoms: _402  and  _403
REMARK  166  A    between atoms: _402  and  _405
REMARK  167  A    between atoms: _408  and  _410
REMARK  168  A    between atoms: _410  and  _411
REMARK  169  A    between atoms: _410  and  _413
REMARK  170  A    between atoms: _413  and  _414
REMARK  171  A    between atoms: _414  and  _415
REMARK  172  A    between atoms: _415  and  _416
REMARK  173  A    between atoms: _416  and  _417
REMARK  174  A    between atoms: _421  and  _423
REMARK  175  A    between atoms: _423  and  _424
REMARK  176  A    between atoms: _423  and  _426
REMARK  177  A    between atoms: _426  and  _427
REMARK  178  A    between atoms: _427  and  _428
REMARK  179  A    between atoms: _430  and  _432
REMARK  180  A    between atoms: _432  and  _433
REMARK  181  A    between atoms: _432  and  _435
REMARK  182  A    between atoms: _435  and  _436
REMARK  183  A    between atoms: _439  and  _441
REMARK  184  A    between atoms: _441  and  _442
REMARK  185  A    between atoms: _444  and  _446
REMARK  186  A    between atoms: _446  and  _447
REMARK  187  A    between atoms: _449  and  _451
REMARK  188  A    between atoms: _451  and  _452
REMARK  189  A    between atoms: _451  and  _454
REMARK  190  A    between atoms: _454  and  _455
REMARK  191  A    between atoms: _458  and  _460
REMARK  192  A    between atoms: _460  and  _461
REMARK  193  A    between atoms: _463  and  _465
REMARK  194  A    between atoms: _465  and  _466
REMARK  195  A    between atoms: _468  and  _470
REMARK  196  A    between atoms: _470  and  _471
REMARK  197  A    between atoms: _470  and  _473
REMARK  198  A    between atoms: _473  and  _474
REMARK  199  A    between atoms: _480  and  _482
REMARK  200  A    between atoms: _482  and  _483
REMARK  201  A    between atoms: _482  and  _485
REMARK  202  A    between atoms: _485  and  _486
REMARK  203  A    between atoms: _489  and  _491
REMARK  204  A    between atoms: _491  and  _492
REMARK  205  A    between atoms: _491  and  _494
REMARK  206  A    between atoms: _497  and  _499
REMARK  207  A    between atoms: _499  and  _500
REMARK  208  A    between atoms: _499  and  _502
REMARK  209  A    between atoms: _502  and  _503
REMARK  210  A    between atoms: _506  and  _508
REMARK  211  A    between atoms: _508  and  _509
REMARK  212  A    between atoms: _508  and  _511
REMARK  213  A    between atoms: _511  and  _512
REMARK  214  A    between atoms: _516  and  _517
REMARK  215  A    between atoms: _522  and  _524
REMARK  216  A    between atoms: _524  and  _525
REMARK  217  A    between atoms: _524  and  _527
REMARK  218  A    between atoms: _530  and  _532
REMARK  219  A    between atoms: _532  and  _533
REMARK  220  A    between atoms: _532  and  _535
REMARK  221  A    between atoms: _535  and  _536
REMARK  222  A    between atoms: _541  and  _543
REMARK  223  A    between atoms: _543  and  _544
REMARK  224  A    between atoms: _543  and  _546
REMARK  225  A    between atoms: _546  and  _547
REMARK  226  A    between atoms: _550  and  _552
REMARK  227  A    between atoms: _552  and  _553
REMARK  228  A    between atoms: _552  and  _555
REMARK  229  A    between atoms: _555  and  _556
REMARK  230  A    between atoms: _559  and  _561
REMARK  231  A    between atoms: _561  and  _562
REMARK  232  A    between atoms: _564  and  _566
REMARK  233  A    between atoms: _566  and  _567
REMARK  234  A    between atoms: _566  and  _569
REMARK  235  A    between atoms: _569  and  _570
REMARK  236  A    between atoms: _570  and  _571
REMARK  237  A    between atoms: _571  and  _572
REMARK  238  A    between atoms: _581  and  _583
REMARK  239  A    between atoms: _583  and  _584
REMARK  240  A    between atoms: _583  and  _586
REMARK  241  A    between atoms: _586  and  _587
REMARK                            x       y       z     vdW  Elec       q    Type
REMARK                         _______ _______ _______ _____ _____    ______ ____
ROOT
ATOM      1  O   HOH     1       6.779 -27.585 -19.985  0.00  0.00    +0.000 OA
ENDROOT
TORSDOF 0
REMARK  Name = ../refined-set-2016/2pk6/2pk6_pocket.pdb
REMARK  241 active torsions:
REMARK  status: ('A' for Active; 'I' for Inactive)
REMARK    1  A    between atoms: _1  and  _3
REMARK    2  A    between atoms: _3  and  _4
REMARK    3  A    between atoms: _3  and  _6
REMARK    4  A    between atoms: _6  and  _7
REMARK    5  A    between atoms: _7  and  _8
REMARK    6  A    between atoms: _8  and  _9
REMARK    7  A    between atoms: _18  and  _20
REMARK    8  A    between atoms: _20  and  _21
REMARK    9  A    between atoms: _20  and  _23
REMARK   10  A    between atoms: _23  and  _24
REMARK   11  A    between atoms: _27  and  _29
REMARK   12  A    between atoms: _29  and  _30
REMARK   13  A    between atoms: _29  and  _32
REMARK   14  A    between atoms: _32  and  _33
REMARK   15  A    between atoms: _36  and  _38
REMARK   16  A    between atoms: _38  and  _39
REMARK   17  A    between atoms: _38  and  _41
REMARK   18  A    between atoms: _41  and  _42
REMARK   19  A    between atoms: _45  and  _47
REMARK   20  A    between atoms: _47  and  _48
REMARK   21  A    between atoms: _47  and  _50
REMARK   22  A    between atoms: _50  and  _51
REMARK   23  A    between atoms: _54  and  _56
REMARK   24  A    between atoms: _56  and  _57
REMARK   25  A    between atoms: _59  and  _61
REMARK   26  A    between atoms: _61  and  _62
REMARK   27  A    between atoms: _65  and  _67
REMARK   28  A    between atoms: _67  and  _68
REMARK   29  A    between atoms: _67  and  _70
REMARK   30  A    between atoms: _70  and  _71
REMARK   31  A    between atoms: _74  and  _76
REMARK   32  A    between atoms: _76  and  _77
REMARK   33  A    between atoms: _76  and  _79
REMARK   34  A    between atoms: _79  and  _80
REMARK   35  A    between atoms: _83  and  _85
REMARK   36  A    between atoms: _85  and  _86
REMARK   37  A    between atoms: _85  and  _88
REMARK   38  A    between atoms: _88  and  _89
REMARK   39  A    between atoms: _92  and  _94
REMARK   40  A    between atoms: _94  and  _95
REMARK   41  A    between atoms: _94  and  _97
REMARK   42  A    between atoms: _100  and  _102
REMARK   43  A    between atoms: _102  and  _103
REMARK   44  A    between atoms: _102  and  _105
REMARK   45  A    between atoms: _105  and  _106
REMARK   46  A    between atoms: _109  and  _111
REMARK   47  A    between atoms: _111  and  _112
REMARK   48  A    between atoms: _111  and  _114
REMARK   49  A    between atoms: _114  and  _115
REMARK   50  A    between atoms: _115  and  _116
REMARK   51  A    between atoms: _116  and  _117
REMARK   52  A    between atoms: _117  and  _118
REMARK   53  A    between atoms: _122  and  _124
REMARK   54  A    between atoms: _124  and  _125
REMARK   55  A    between atoms: _124  and  _127
REMARK   56  A    between atoms: _127  and  _128
REMARK   57  A    between atoms: _128  and  _129
REMARK   58  A    between atoms: _131  and  _133
REMARK   59  A    between atoms: _133  and  _134
REMARK   60  A    between atoms: _133  and  _136
REMARK   61  A    between atoms: _136  and  _137
REMARK   62  A    between atoms: _140  and  _142
REMARK   63  A    between atoms: _142  and  _143
REMARK   64  A    between atoms: _145  and  _147
REMARK   65  A    between atoms: _147  and  _148
REMARK   66  A    between atoms: _150  and  _152
REMARK   67  A    between atoms: _152  and  _153
REMARK   68  A    between atoms: _152  and  _155
REMARK   69  A    between atoms: _155  and  _156
REMARK   70  A    between atoms: _159  and  _161
REMARK   71  A    between atoms: _161  and  _162
REMARK   72  A    between atoms: _164  and  _166
REMARK   73  A    between atoms: _166  and  _167
REMARK   74  A    between atoms: _169  and  _171
REMARK   75  A    between atoms: _171  and  _172
REMARK   76  A    between atoms: _171  and  _174
REMARK   77  A    between atoms: _174  and  _175
REMARK   78  A    between atoms: _181  and  _183
REMARK   79  A    between atoms: _183  and  _184
REMARK   80  A    between atoms: _183  and  _186
REMARK   81  A    between atoms: _186  and  _187
REMARK   82  A    between atoms: _190  and  _192
REMARK   83  A    between atoms: _192  and  _193
REMARK   84  A    between atoms: _192  and  _195
REMARK   85  A    between atoms: _198  and  _200
REMARK   86  A    between atoms: _200  and  _201
REMARK   87  A    between atoms: _200  and  _203
REMARK   88  A    between atoms: _203  and  _204
REMARK   89  A    between atoms: _208  and  _209
REMARK   90  A    between atoms: _214  and  _216
REMARK   91  A    between atoms: _216  and  _217
REMARK   92  A    between atoms: _216  and  _219
REMARK   93  A    between atoms: _219  and  _220
REMARK   94  A    between atoms: _224  and  _225
REMARK   95  A    between atoms: _230  and  _232
REMARK   96  A    between atoms: _232  and  _233
REMARK   97  A    between atoms: _232  and  _235
REMARK   98  A    between atoms: _238  and  _240
REMARK   99  A    between atoms: _240  and  _241
REMARK  100  A    between atoms: _240  and  _243
REMARK  101  A    between atoms: _243  and  _244
REMARK  102  A    between atoms: _249  and  _251
REMARK  103  A    between atoms: _251  and  _252
REMARK  104  A    between atoms: _251  and  _254
REMARK  105  A    between atoms: _254  and  _255
REMARK  106  A    between atoms: _258  and  _260
REMARK  107  A    between atoms: _260  and  _261
REMARK  108  A    between atoms: _260  and  _263
REMARK  109  A    between atoms: _263  and  _264
REMARK  110  A    between atoms: _267  and  _269
REMARK  111  A    between atoms: _269  and  _270
REMARK  112  A    between atoms: _272  and  _274
REMARK  113  A    between atoms: _274  and  _275
REMARK  114  A    between atoms: _274  and  _277
REMARK  115  A    between atoms: _277  and  _278
REMARK  116  A    between atoms: _278  and  _279
REMARK  117  A    between atoms: _279  and  _280
REMARK  118  A    between atoms: _289  and  _291
REMARK  119  A    between atoms: _291  and  _292
REMARK  120  A    between atoms: _291  and  _294
REMARK  121  A    between atoms: _294  and  _295
REMARK  122  A    between atoms: _300  and  _302
REMARK  123  A    between atoms: _302  and  _303
REMARK  124  A    between atoms: _302  and  _305
REMARK  125  A    between atoms: _305  and  _306
REMARK  126  A    between atoms: _306  and  _307
REMARK  127  A    between atoms: _307  and  _308
REMARK  128  A    between atoms: _317  and  _319
REMARK  129  A    between atoms: _319  and  _320
REMARK  130  A    between atoms: _319  and  _322
REMARK  131  A    between atoms: _322  and  _323
REMARK  132  A    between atoms: _326  and  _328
REMARK  133  A    between atoms: _328  and  _329
REMARK  134  A    between atoms: _328  and  _331
REMARK  135  A    between atoms: _331  and  _332
REMARK  136  A    between atoms: _335  and  _337
REMARK  137  A    between atoms: _337  and  _338
REMARK  138  A    between atoms: _337  and  _340
REMARK  139  A    between atoms: _340  and  _341
REMARK  140  A    between atoms: _344  and  _346
REMARK  141  A    between atoms: _346  and  _347
REMARK  142  A    between atoms: _346  and  _349
REMARK  143  A    between atoms: _349  and  _350
REMARK  144  A    between atoms: _353  and  _355
REMARK  145  A    between atoms: _355  and  _356
REMARK  146  A    between atoms: _355  and  _358
REMARK  147  A    between atoms: _358  and  _359
REMARK  148  A    between atoms: _362  and  _364
REMARK  149  A    between atoms: _364  and  _365
REMARK  150  A    between atoms: _367  and  _369
REMARK  151  A    between atoms: _369  and  _370
REMARK  152  A    between atoms: _373  and  _375
REMARK  153  A    between atoms: _375  and  _376
REMARK  154  A    between atoms: _375  and  _378
REMARK  155  A    between atoms: _378  and  _379
REMARK  156  A    between atoms: _382  and  _384
REMARK  157  A    between atoms: _384  and  _385
REMARK  158  A    between atoms: _384  and  _387
REMARK  159  A    between atoms: _387  and  _388
REMARK  160  A    between atoms: _391  and  _393
REMARK  161  A    between atoms: _393  and  _394
REMARK  162  A    between atoms: _393  and  _396
REMARK  163  A    between atoms: _396  and  _397
REMARK  164  A    between atoms: _400  and  _402
REMARK  165  A    between atoms: _402  and  _403
REMARK  166  A    between atoms: _402  and  _405
REMARK  167  A    between atoms: _408  and  _410
REMARK  168  A    between atoms: _410  and  _411
REMARK  169  A    between atoms: _410  and  _413
REMARK  170  A    between atoms: _413  and  _414
REMARK  171  A    between atoms: _414  and  _415
REMARK  172  A    between atoms: _415  and  _416
REMARK  173  A    between atoms: _416  and  _417
REMARK  174  A    between atoms: _421  and  _423
REMARK  175  A    between atoms: _423  and  _424
REMARK  176  A    between atoms: _423  and  _426
REMARK  177  A    between atoms: _426  and  _427
REMARK  178  A    between atoms: _427  and  _428
REMARK  179  A    between atoms: _430  and  _432
REMARK  180  A    between atoms: _432  and  _433
REMARK  181  A    between atoms: _432  and  _435
REMARK  182  A    between atoms: _435  and  _436
REMARK  183  A    between atoms: _439  and  _441
REMARK  184  A    between atoms: _441  and  _442
REMARK  185  A    between atoms: _444  and  _446
REMARK  186  A    between atoms: _446  and  _447
REMARK  187  A    between atoms: _449  and  _451
REMARK  188  A    between atoms: _451  and  _452
REMARK  189  A    between atoms: _451  and  _454
REMARK  190  A    between atoms: _454  and  _455
REMARK  191  A    between atoms: _458  and  _460
REMARK  192  A    between atoms: _460  and  _461
REMARK  193  A    between atoms: _463  and  _465
REMARK  194  A    between atoms: _465  and  _466
REMARK  195  A    between atoms: _468  and  _470
REMARK  196  A    between atoms: _470  and  _471
REMARK  197  A    between atoms: _470  and  _473
REMARK  198  A    between atoms: _473  and  _474
REMARK  199  A    between atoms: _480  and  _482
REMARK  200  A    between atoms: _482  and  _483
REMARK  201  A    between atoms: _482  and  _485
REMARK  202  A    between atoms: _485  and  _486
REMARK  203  A    between atoms: _489  and  _491
REMARK  204  A    between atoms: _491  and  _492
REMARK  205  A    between atoms: _491  and  _494
REMARK  206  A    between atoms: _497  and  _499
REMARK  207  A    between atoms: _499  and  _500
REMARK  208  A    between atoms: _499  and  _502
REMARK  209  A    between atoms: _502  and  _503
REMARK  210  A    between atoms: _506  and  _508
REMARK  211  A    between atoms: _508  and  _509
REMARK  212  A    between atoms: _508  and  _511
REMARK  213  A    between atoms: _511  and  _512
REMARK  214  A    between atoms: _516  and  _517
REMARK  215  A    between atoms: _522  and  _524
REMARK  216  A    between atoms: _524  and  _525
REMARK  217  A    between atoms: _524  and  _527
REMARK  218  A    between atoms: _530  and  _532
REMARK  219  A    between atoms: _532  and  _533
REMARK  220  A    between atoms: _532  and  _535
REMARK  221  A    between atoms: _535  and  _536
REMARK  222  A    between atoms: _541  and  _543
REMARK  223  A    between atoms: _543  and  _544
REMARK  224  A    between atoms: _543  and  _546
REMARK  225  A    between atoms: _546  and  _547
REMARK  226  A    between atoms: _550  and  _552
REMARK  227  A    between atoms: _552  and  _553
REMARK  228  A    between atoms: _552  and  _555
REMARK  229  A    between atoms: _555  and  _556
REMARK  230  A    between atoms: _559  and  _561
REMARK  231  A    between atoms: _561  and  _562
REMARK  232  A    between atoms: _564  and  _566
REMARK  233  A    between atoms: _566  and  _567
REMARK  234  A    between atoms: _566  and  _569
REMARK  235  A    between atoms: _569  and  _570
REMARK  236  A    between atoms: _570  and  _571
REMARK  237  A    between atoms: _571  and  _572
REMARK  238  A    between atoms: _581  and  _583
REMARK  239  A    between atoms: _583  and  _584
REMARK  240  A    between atoms: _583  and  _586
REMARK  241  A    between atoms: _586  and  _587
REMARK                            x       y       z     vdW  Elec       q    Type
REMARK                         _______ _______ _______ _____ _____    ______ ____
ROOT
ATOM      1  O   HOH     1      24.816 -24.018 -22.935  0.00  0.00    +0.000 OA
ENDROOT
TORSDOF 0
REMARK  Name = ../refined-set-2016/2pk6/2pk6_pocket.pdb
REMARK  241 active torsions:
REMARK  status: ('A' for Active; 'I' for Inactive)
REMARK    1  A    between atoms: _1  and  _3
REMARK    2  A    between atoms: _3  and  _4
REMARK    3  A    between atoms: _3  and  _6
REMARK    4  A    between atoms: _6  and  _7
REMARK    5  A    between atoms: _7  and  _8
REMARK    6  A    between atoms: _8  and  _9
REMARK    7  A    between atoms: _18  and  _20
REMARK    8  A    between atoms: _20  and  _21
REMARK    9  A    between atoms: _20  and  _23
REMARK   10  A    between atoms: _23  and  _24
REMARK   11  A    between atoms: _27  and  _29
REMARK   12  A    between atoms: _29  and  _30
REMARK   13  A    between atoms: _29  and  _32
REMARK   14  A    between atoms: _32  and  _33
REMARK   15  A    between atoms: _36  and  _38
REMARK   16  A    between atoms: _38  and  _39
REMARK   17  A    between atoms: _38  and  _41
REMARK   18  A    between atoms: _41  and  _42
REMARK   19  A    between atoms: _45  and  _47
REMARK   20  A    between atoms: _47  and  _48
REMARK   21  A    between atoms: _47  and  _50
REMARK   22  A    between atoms: _50  and  _51
REMARK   23  A    between atoms: _54  and  _56
REMARK   24  A    between atoms: _56  and  _57
REMARK   25  A    between atoms: _59  and  _61
REMARK   26  A    between atoms: _61  and  _62
REMARK   27  A    between atoms: _65  and  _67
REMARK   28  A    between atoms: _67  and  _68
REMARK   29  A    between atoms: _67  and  _70
REMARK   30  A    between atoms: _70  and  _71
REMARK   31  A    between atoms: _74  and  _76
REMARK   32  A    between atoms: _76  and  _77
REMARK   33  A    between atoms: _76  and  _79
REMARK   34  A    between atoms: _79  and  _80
REMARK   35  A    between atoms: _83  and  _85
REMARK   36  A    between atoms: _85  and  _86
REMARK   37  A    between atoms: _85  and  _88
REMARK   38  A    between atoms: _88  and  _89
REMARK   39  A    between atoms: _92  and  _94
REMARK   40  A    between atoms: _94  and  _95
REMARK   41  A    between atoms: _94  and  _97
REMARK   42  A    between atoms: _100  and  _102
REMARK   43  A    between atoms: _102  and  _103
REMARK   44  A    between atoms: _102  and  _105
REMARK   45  A    between atoms: _105  and  _106
REMARK   46  A    between atoms: _109  and  _111
REMARK   47  A    between atoms: _111  and  _112
REMARK   48  A    between atoms: _111  and  _114
REMARK   49  A    between atoms: _114  and  _115
REMARK   50  A    between atoms: _115  and  _116
REMARK   51  A    between atoms: _116  and  _117
REMARK   52  A    between atoms: _117  and  _118
REMARK   53  A    between atoms: _122  and  _124
REMARK   54  A    between atoms: _124  and  _125
REMARK   55  A    between atoms: _124  and  _127
REMARK   56  A    between atoms: _127  and  _128
REMARK   57  A    between atoms: _128  and  _129
REMARK   58  A    between atoms: _131  and  _133
REMARK   59  A    between atoms: _133  and  _134
REMARK   60  A    between atoms: _133  and  _136
REMARK   61  A    between atoms: _136  and  _137
REMARK   62  A    between atoms: _140  and  _142
REMARK   63  A    between atoms: _142  and  _143
REMARK   64  A    between atoms: _145  and  _147
REMARK   65  A    between atoms: _147  and  _148
REMARK   66  A    between atoms: _150  and  _152
REMARK   67  A    between atoms: _152  and  _153
REMARK   68  A    between atoms: _152  and  _155
REMARK   69  A    between atoms: _155  and  _156
REMARK   70  A    between atoms: _159  and  _161
REMARK   71  A    between atoms: _161  and  _162
REMARK   72  A    between atoms: _164  and  _166
REMARK   73  A    between atoms: _166  and  _167
REMARK   74  A    between atoms: _169  and  _171
REMARK   75  A    between atoms: _171  and  _172
REMARK   76  A    between atoms: _171  and  _174
REMARK   77  A    between atoms: _174  and  _175
REMARK   78  A    between atoms: _181  and  _183
REMARK   79  A    between atoms: _183  and  _184
REMARK   80  A    between atoms: _183  and  _186
REMARK   81  A    between atoms: _186  and  _187
REMARK   82  A    between atoms: _190  and  _192
REMARK   83  A    between atoms: _192  and  _193
REMARK   84  A    between atoms: _192  and  _195
REMARK   85  A    between atoms: _198  and  _200
REMARK   86  A    between atoms: _200  and  _201
REMARK   87  A    between atoms: _200  and  _203
REMARK   88  A    between atoms: _203  and  _204
REMARK   89  A    between atoms: _208  and  _209
REMARK   90  A    between atoms: _214  and  _216
REMARK   91  A    between atoms: _216  and  _217
REMARK   92  A    between atoms: _216  and  _219
REMARK   93  A    between atoms: _219  and  _220
REMARK   94  A    between atoms: _224  and  _225
REMARK   95  A    between atoms: _230  and  _232
REMARK   96  A    between atoms: _232  and  _233
REMARK   97  A    between atoms: _232  and  _235
REMARK   98  A    between atoms: _238  and  _240
REMARK   99  A    between atoms: _240  and  _241
REMARK  100  A    between atoms: _240  and  _243
REMARK  101  A    between atoms: _243  and  _244
REMARK  102  A    between atoms: _249  and  _251
REMARK  103  A    between atoms: _251  and  _252
REMARK  104  A    between atoms: _251  and  _254
REMARK  105  A    between atoms: _254  and  _255
REMARK  106  A    between atoms: _258  and  _260
REMARK  107  A    between atoms: _260  and  _261
REMARK  108  A    between atoms: _260  and  _263
REMARK  109  A    between atoms: _263  and  _264
REMARK  110  A    between atoms: _267  and  _269
REMARK  111  A    between atoms: _269  and  _270
REMARK  112  A    between atoms: _272  and  _274
REMARK  113  A    between atoms: _274  and  _275
REMARK  114  A    between atoms: _274  and  _277
REMARK  115  A    between atoms: _277  and  _278
REMARK  116  A    between atoms: _278  and  _279
REMARK  117  A    between atoms: _279  and  _280
REMARK  118  A    between atoms: _289  and  _291
REMARK  119  A    between atoms: _291  and  _292
REMARK  120  A    between atoms: _291  and  _294
REMARK  121  A    between atoms: _294  and  _295
REMARK  122  A    between atoms: _300  and  _302
REMARK  123  A    between atoms: _302  and  _303
REMARK  124  A    between atoms: _302  and  _305
REMARK  125  A    between atoms: _305  and  _306
REMARK  126  A    between atoms: _306  and  _307
REMARK  127  A    between atoms: _307  and  _308
REMARK  128  A    between atoms: _317  and  _319
REMARK  129  A    between atoms: _319  and  _320
REMARK  130  A    between atoms: _319  and  _322
REMARK  131  A    between atoms: _322  and  _323
REMARK  132  A    between atoms: _326  and  _328
REMARK  133  A    between atoms: _328  and  _329
REMARK  134  A    between atoms: _328  and  _331
REMARK  135  A    between atoms: _331  and  _332
REMARK  136  A    between atoms: _335  and  _337
REMARK  137  A    between atoms: _337  and  _338
REMARK  138  A    between atoms: _337  and  _340
REMARK  139  A    between atoms: _340  and  _341
REMARK  140  A    between atoms: _344  and  _346
REMARK  141  A    between atoms: _346  and  _347
REMARK  142  A    between atoms: _346  and  _349
REMARK  143  A    between atoms: _349  and  _350
REMARK  144  A    between atoms: _353  and  _355
REMARK  145  A    between atoms: _355  and  _356
REMARK  146  A    between atoms: _355  and  _358
REMARK  147  A    between atoms: _358  and  _359
REMARK  148  A    between atoms: _362  and  _364
REMARK  149  A    between atoms: _364  and  _365
REMARK  150  A    between atoms: _367  and  _369
REMARK  151  A    between atoms: _369  and  _370
REMARK  152  A    between atoms: _373  and  _375
REMARK  153  A    between atoms: _375  and  _376
REMARK  154  A    between atoms: _375  and  _378
REMARK  155  A    between atoms: _378  and  _379
REMARK  156  A    between atoms: _382  and  _384
REMARK  157  A    between atoms: _384  and  _385
REMARK  158  A    between atoms: _384  and  _387
REMARK  159  A    between atoms: _387  and  _388
REMARK  160  A    between atoms: _391  and  _393
REMARK  161  A    between atoms: _393  and  _394
REMARK  162  A    between atoms: _393  and  _396
REMARK  163  A    between atoms: _396  and  _397
REMARK  164  A    between atoms: _400  and  _402
REMARK  165  A    between atoms: _402  and  _403
REMARK  166  A    between atoms: _402  and  _405
REMARK  167  A    between atoms: _408  and  _410
REMARK  168  A    between atoms: _410  and  _411
REMARK  169  A    between atoms: _410  and  _413
REMARK  170  A    between atoms: _413  and  _414
REMARK  171  A    between atoms: _414  and  _415
REMARK  172  A    between atoms: _415  and  _416
REMARK  173  A    between atoms: _416  and  _417
REMARK  174  A    between atoms: _421  and  _423
REMARK  175  A    between atoms: _423  and  _424
REMARK  176  A    between atoms: _423  and  _426
REMARK  177  A    between atoms: _426  and  _427
REMARK  178  A    between atoms: _427  and  _428
REMARK  179  A    between atoms: _430  and  _432
REMARK  180  A    between atoms: _432  and  _433
REMARK  181  A    between atoms: _432  and  _435
REMARK  182  A    between atoms: _435  and  _436
REMARK  183  A    between atoms: _439  and  _441
REMARK  184  A    between atoms: _441  and  _442
REMARK  185  A    between atoms: _444  and  _446
REMARK  186  A    between atoms: _446  and  _447
REMARK  187  A    between atoms: _449  and  _451
REMARK  188  A    between atoms: _451  and  _452
REMARK  189  A    between atoms: _451  and  _454
REMARK  190  A    between atoms: _454  and  _455
REMARK  191  A    between atoms: _458  and  _460
REMARK  192  A    between atoms: _460  and  _461
REMARK  193  A    between atoms: _463  and  _465
REMARK  194  A    between atoms: _465  and  _466
REMARK  195  A    between atoms: _468  and  _470
REMARK  196  A    between atoms: _470  and  _471
REMARK  197  A    between atoms: _470  and  _473
REMARK  198  A    between atoms: _473  and  _474
REMARK  199  A    between atoms: _480  and  _482
REMARK  200  A    between atoms: _482  and  _483
REMARK  201  A    between atoms: _482  and  _485
REMARK  202  A    between atoms: _485  and  _486
REMARK  203  A    between atoms: _489  and  _491
REMARK  204  A    between atoms: _491  and  _492
REMARK  205  A    between atoms: _491  and  _494
REMARK  206  A    between atoms: _497  and  _499
REMARK  207  A    between atoms: _499  and  _500
REMARK  208  A    between atoms: _499  and  _502
REMARK  209  A    between atoms: _502  and  _503
REMARK  210  A    between atoms: _506  and  _508
REMARK  211  A    between atoms: _508  and  _509
REMARK  212  A    between atoms: _508  and  _511
REMARK  213  A    between atoms: _511  and  _512
REMARK  214  A    between atoms: _516  and  _517
REMARK  215  A    between atoms: _522  and  _524
REMARK  216  A    between atoms: _524  and  _525
REMARK  217  A    between atoms: _524  and  _527
REMARK  218  A    between atoms: _530  and  _532
REMARK  219  A    between atoms: _532  and  _533
REMARK  220  A    between atoms: _532  and  _535
REMARK  221  A    between atoms: _535  and  _536
REMARK  222  A    between atoms: _541  and  _543
REMARK  223  A    between atoms: _543  and  _544
REMARK  224  A    between atoms: _543  and  _546
REMARK  225  A    between atoms: _546  and  _547
REMARK  226  A    between atoms: _550  and  _552
REMARK  227  A    between atoms: _552  and  _553
REMARK  228  A    between atoms: _552  and  _555
REMARK  229  A    between atoms: _555  and  _556
REMARK  230  A    between atoms: _559  and  _561
REMARK  231  A    between atoms: _561  and  _562
REMARK  232  A    between atoms: _564  and  _566
REMARK  233  A    between atoms: _566  and  _567
REMARK  234  A    between atoms: _566  and  _569
REMARK  235  A    between atoms: _569  and  _570
REMARK  236  A    between atoms: _570  and  _571
REMARK  237  A    between atoms: _571  and  _572
REMARK  238  A    between atoms: _581  and  _583
REMARK  239  A    between atoms: _583  and  _584
REMARK  240  A    between atoms: _583  and  _586
REMARK  241  A    between atoms: _586  and  _587
REMARK                            x       y       z     vdW  Elec       q    Type
REMARK                         _______ _______ _______ _____ _____    ______ ____
ROOT
ATOM      1  O   HOH     1       6.220 -15.502 -25.471  0.00  0.00    +0.000 OA
ENDROOT
TORSDOF 0
REMARK  Name = ../refined-set-2016/2pk6/2pk6_pocket.pdb
REMARK  241 active torsions:
REMARK  status: ('A' for Active; 'I' for Inactive)
REMARK    1  A    between atoms: _1  and  _3
REMARK    2  A    between atoms: _3  and  _4
REMARK    3  A    between atoms: _3  and  _6
REMARK    4  A    between atoms: _6  and  _7
REMARK    5  A    between atoms: _7  and  _8
REMARK    6  A    between atoms: _8  and  _9
REMARK    7  A    between atoms: _18  and  _20
REMARK    8  A    between atoms: _20  and  _21
REMARK    9  A    between atoms: _20  and  _23
REMARK   10  A    between atoms: _23  and  _24
REMARK   11  A    between atoms: _27  and  _29
REMARK   12  A    between atoms: _29  and  _30
REMARK   13  A    between atoms: _29  and  _32
REMARK   14  A    between atoms: _32  and  _33
REMARK   15  A    between atoms: _36  and  _38
REMARK   16  A    between atoms: _38  and  _39
REMARK   17  A    between atoms: _38  and  _41
REMARK   18  A    between atoms: _41  and  _42
REMARK   19  A    between atoms: _45  and  _47
REMARK   20  A    between atoms: _47  and  _48
REMARK   21  A    between atoms: _47  and  _50
REMARK   22  A    between atoms: _50  and  _51
REMARK   23  A    between atoms: _54  and  _56
REMARK   24  A    between atoms: _56  and  _57
REMARK   25  A    between atoms: _59  and  _61
REMARK   26  A    between atoms: _61  and  _62
REMARK   27  A    between atoms: _65  and  _67
REMARK   28  A    between atoms: _67  and  _68
REMARK   29  A    between atoms: _67  and  _70
REMARK   30  A    between atoms: _70  and  _71
REMARK   31  A    between atoms: _74  and  _76
REMARK   32  A    between atoms: _76  and  _77
REMARK   33  A    between atoms: _76  and  _79
REMARK   34  A    between atoms: _79  and  _80
REMARK   35  A    between atoms: _83  and  _85
REMARK   36  A    between atoms: _85  and  _86
REMARK   37  A    between atoms: _85  and  _88
REMARK   38  A    between atoms: _88  and  _89
REMARK   39  A    between atoms: _92  and  _94
REMARK   40  A    between atoms: _94  and  _95
REMARK   41  A    between atoms: _94  and  _97
REMARK   42  A    between atoms: _100  and  _102
REMARK   43  A    between atoms: _102  and  _103
REMARK   44  A    between atoms: _102  and  _105
REMARK   45  A    between atoms: _105  and  _106
REMARK   46  A    between atoms: _109  and  _111
REMARK   47  A    between atoms: _111  and  _112
REMARK   48  A    between atoms: _111  and  _114
REMARK   49  A    between atoms: _114  and  _115
REMARK   50  A    between atoms: _115  and  _116
REMARK   51  A    between atoms: _116  and  _117
REMARK   52  A    between atoms: _117  and  _118
REMARK   53  A    between atoms: _122  and  _124
REMARK   54  A    between atoms: _124  and  _125
REMARK   55  A    between atoms: _124  and  _127
REMARK   56  A    between atoms: _127  and  _128
REMARK   57  A    between atoms: _128  and  _129
REMARK   58  A    between atoms: _131  and  _133
REMARK   59  A    between atoms: _133  and  _134
REMARK   60  A    between atoms: _133  and  _136
REMARK   61  A    between atoms: _136  and  _137
REMARK   62  A    between atoms: _140  and  _142
REMARK   63  A    between atoms: _142  and  _143
REMARK   64  A    between atoms: _145  and  _147
REMARK   65  A    between atoms: _147  and  _148
REMARK   66  A    between atoms: _150  and  _152
REMARK   67  A    between atoms: _152  and  _153
REMARK   68  A    between atoms: _152  and  _155
REMARK   69  A    between atoms: _155  and  _156
REMARK   70  A    between atoms: _159  and  _161
REMARK   71  A    between atoms: _161  and  _162
REMARK   72  A    between atoms: _164  and  _166
REMARK   73  A    between atoms: _166  and  _167
REMARK   74  A    between atoms: _169  and  _171
REMARK   75  A    between atoms: _171  and  _172
REMARK   76  A    between atoms: _171  and  _174
REMARK   77  A    between atoms: _174  and  _175
REMARK   78  A    between atoms: _181  and  _183
REMARK   79  A    between atoms: _183  and  _184
REMARK   80  A    between atoms: _183  and  _186
REMARK   81  A    between atoms: _186  and  _187
REMARK   82  A    between atoms: _190  and  _192
REMARK   83  A    between atoms: _192  and  _193
REMARK   84  A    between atoms: _192  and  _195
REMARK   85  A    between atoms: _198  and  _200
REMARK   86  A    between atoms: _200  and  _201
REMARK   87  A    between atoms: _200  and  _203
REMARK   88  A    between atoms: _203  and  _204
REMARK   89  A    between atoms: _208  and  _209
REMARK   90  A    between atoms: _214  and  _216
REMARK   91  A    between atoms: _216  and  _217
REMARK   92  A    between atoms: _216  and  _219
REMARK   93  A    between atoms: _219  and  _220
REMARK   94  A    between atoms: _224  and  _225
REMARK   95  A    between atoms: _230  and  _232
REMARK   96  A    between atoms: _232  and  _233
REMARK   97  A    between atoms: _232  and  _235
REMARK   98  A    between atoms: _238  and  _240
REMARK   99  A    between atoms: _240  and  _241
REMARK  100  A    between atoms: _240  and  _243
REMARK  101  A    between atoms: _243  and  _244
REMARK  102  A    between atoms: _249  and  _251
REMARK  103  A    between atoms: _251  and  _252
REMARK  104  A    between atoms: _251  and  _254
REMARK  105  A    between atoms: _254  and  _255
REMARK  106  A    between atoms: _258  and  _260
REMARK  107  A    between atoms: _260  and  _261
REMARK  108  A    between atoms: _260  and  _263
REMARK  109  A    between atoms: _263  and  _264
REMARK  110  A    between atoms: _267  and  _269
REMARK  111  A    between atoms: _269  and  _270
REMARK  112  A    between atoms: _272  and  _274
REMARK  113  A    between atoms: _274  and  _275
REMARK  114  A    between atoms: _274  and  _277
REMARK  115  A    between atoms: _277  and  _278
REMARK  116  A    between atoms: _278  and  _279
REMARK  117  A    between atoms: _279  and  _280
REMARK  118  A    between atoms: _289  and  _291
REMARK  119  A    between atoms: _291  and  _292
REMARK  120  A    between atoms: _291  and  _294
REMARK  121  A    between atoms: _294  and  _295
REMARK  122  A    between atoms: _300  and  _302
REMARK  123  A    between atoms: _302  and  _303
REMARK  124  A    between atoms: _302  and  _305
REMARK  125  A    between atoms: _305  and  _306
REMARK  126  A    between atoms: _306  and  _307
REMARK  127  A    between atoms: _307  and  _308
REMARK  128  A    between atoms: _317  and  _319
REMARK  129  A    between atoms: _319  and  _320
REMARK  130  A    between atoms: _319  and  _322
REMARK  131  A    between atoms: _322  and  _323
REMARK  132  A    between atoms: _326  and  _328
REMARK  133  A    between atoms: _328  and  _329
REMARK  134  A    between atoms: _328  and  _331
REMARK  135  A    between atoms: _331  and  _332
REMARK  136  A    between atoms: _335  and  _337
REMARK  137  A    between atoms: _337  and  _338
REMARK  138  A    between atoms: _337  and  _340
REMARK  139  A    between atoms: _340  and  _341
REMARK  140  A    between atoms: _344  and  _346
REMARK  141  A    between atoms: _346  and  _347
REMARK  142  A    between atoms: _346  and  _349
REMARK  143  A    between atoms: _349  and  _350
REMARK  144  A    between atoms: _353  and  _355
REMARK  145  A    between atoms: _355  and  _356
REMARK  146  A    between atoms: _355  and  _358
REMARK  147  A    between atoms: _358  and  _359
REMARK  148  A    between atoms: _362  and  _364
REMARK  149  A    between atoms: _364  and  _365
REMARK  150  A    between atoms: _367  and  _369
REMARK  151  A    between atoms: _369  and  _370
REMARK  152  A    between atoms: _373  and  _375
REMARK  153  A    between atoms: _375  and  _376
REMARK  154  A    between atoms: _375  and  _378
REMARK  155  A    between atoms: _378  and  _379
REMARK  156  A    between atoms: _382  and  _384
REMARK  157  A    between atoms: _384  and  _385
REMARK  158  A    between atoms: _384  and  _387
REMARK  159  A    between atoms: _387  and  _388
REMARK  160  A    between atoms: _391  and  _393
REMARK  161  A    between atoms: _393  and  _394
REMARK  162  A    between atoms: _393  and  _396
REMARK  163  A    between atoms: _396  and  _397
REMARK  164  A    between atoms: _400  and  _402
REMARK  165  A    between atoms: _402  and  _403
REMARK  166  A    between atoms: _402  and  _405
REMARK  167  A    between atoms: _408  and  _410
REMARK  168  A    between atoms: _410  and  _411
REMARK  169  A    between atoms: _410  and  _413
REMARK  170  A    between atoms: _413  and  _414
REMARK  171  A    between atoms: _414  and  _415
REMARK  172  A    between atoms: _415  and  _416
REMARK  173  A    between atoms: _416  and  _417
REMARK  174  A    between atoms: _421  and  _423
REMARK  175  A    between atoms: _423  and  _424
REMARK  176  A    between atoms: _423  and  _426
REMARK  177  A    between atoms: _426  and  _427
REMARK  178  A    between atoms: _427  and  _428
REMARK  179  A    between atoms: _430  and  _432
REMARK  180  A    between atoms: _432  and  _433
REMARK  181  A    between atoms: _432  and  _435
REMARK  182  A    between atoms: _435  and  _436
REMARK  183  A    between atoms: _439  and  _441
REMARK  184  A    between atoms: _441  and  _442
REMARK  185  A    between atoms: _444  and  _446
REMARK  186  A    between atoms: _446  and  _447
REMARK  187  A    between atoms: _449  and  _451
REMARK  188  A    between atoms: _451  and  _452
REMARK  189  A    between atoms: _451  and  _454
REMARK  190  A    between atoms: _454  and  _455
REMARK  191  A    between atoms: _458  and  _460
REMARK  192  A    between atoms: _460  and  _461
REMARK  193  A    between atoms: _463  and  _465
REMARK  194  A    between atoms: _465  and  _466
REMARK  195  A    between atoms: _468  and  _470
REMARK  196  A    between atoms: _470  and  _471
REMARK  197  A    between atoms: _470  and  _473
REMARK  198  A    between atoms: _473  and  _474
REMARK  199  A    between atoms: _480  and  _482
REMARK  200  A    between atoms: _482  and  _483
REMARK  201  A    between atoms: _482  and  _485
REMARK  202  A    between atoms: _485  and  _486
REMARK  203  A    between atoms: _489  and  _491
REMARK  204  A    between atoms: _491  and  _492
REMARK  205  A    between atoms: _491  and  _494
REMARK  206  A    between atoms: _497  and  _499
REMARK  207  A    between atoms: _499  and  _500
REMARK  208  A    between atoms: _499  and  _502
REMARK  209  A    between atoms: _502  and  _503
REMARK  210  A    between atoms: _506  and  _508
REMARK  211  A    between atoms: _508  and  _509
REMARK  212  A    between atoms: _508  and  _511
REMARK  213  A    between atoms: _511  and  _512
REMARK  214  A    between atoms: _516  and  _517
REMARK  215  A    between atoms: _522  and  _524
REMARK  216  A    between atoms: _524  and  _525
REMARK  217  A    between atoms: _524  and  _527
REMARK  218  A    between atoms: _530  and  _532
REMARK  219  A    between atoms: _532  and  _533
REMARK  220  A    between atoms: _532  and  _535
REMARK  221  A    between atoms: _535  and  _536
REMARK  222  A    between atoms: _541  and  _543
REMARK  223  A    between atoms: _543  and  _544
REMARK  224  A    between atoms: _543  and  _546
REMARK  225  A    between atoms: _546  and  _547
REMARK  226  A    between atoms: _550  and  _552
REMARK  227  A    between atoms: _552  and  _553
REMARK  228  A    between atoms: _552  and  _555
REMARK  229  A    between atoms: _555  and  _556
REMARK  230  A    between atoms: _559  and  _561
REMARK  231  A    between atoms: _561  and  _562
REMARK  232  A    between atoms: _564  and  _566
REMARK  233  A    between atoms: _566  and  _567
REMARK  234  A    between atoms: _566  and  _569
REMARK  235  A    between atoms: _569  and  _570
REMARK  236  A    between atoms: _570  and  _571
REMARK  237  A    between atoms: _571  and  _572
REMARK  238  A    between atoms: _581  and  _583
REMARK  239  A    between atoms: _583  and  _584
REMARK  240  A    between atoms: _583  and  _586
REMARK  241  A    between atoms: _586  and  _587
REMARK                            x       y       z     vdW  Elec       q    Type
REMARK                         _______ _______ _______ _____ _____    ______ ____
ROOT
ATOM      1  O   HOH     1      11.934 -26.785 -10.732  0.00  0.00    +0.000 OA
ENDROOT
TORSDOF 0
REMARK  Name = ../refined-set-2016/2pk6/2pk6_pocket.pdb
REMARK  241 active torsions:
REMARK  status: ('A' for Active; 'I' for Inactive)
REMARK    1  A    between atoms: _1  and  _3
REMARK    2  A    between atoms: _3  and  _4
REMARK    3  A    between atoms: _3  and  _6
REMARK    4  A    between atoms: _6  and  _7
REMARK    5  A    between atoms: _7  and  _8
REMARK    6  A    between atoms: _8  and  _9
REMARK    7  A    between atoms: _18  and  _20
REMARK    8  A    between atoms: _20  and  _21
REMARK    9  A    between atoms: _20  and  _23
REMARK   10  A    between atoms: _23  and  _24
REMARK   11  A    between atoms: _27  and  _29
REMARK   12  A    between atoms: _29  and  _30
REMARK   13  A    between atoms: _29  and  _32
REMARK   14  A    between atoms: _32  and  _33
REMARK   15  A    between atoms: _36  and  _38
REMARK   16  A    between atoms: _38  and  _39
REMARK   17  A    between atoms: _38  and  _41
REMARK   18  A    between atoms: _41  and  _42
REMARK   19  A    between atoms: _45  and  _47
REMARK   20  A    between atoms: _47  and  _48
REMARK   21  A    between atoms: _47  and  _50
REMARK   22  A    between atoms: _50  and  _51
REMARK   23  A    between atoms: _54  and  _56
REMARK   24  A    between atoms: _56  and  _57
REMARK   25  A    between atoms: _59  and  _61
REMARK   26  A    between atoms: _61  and  _62
REMARK   27  A    between atoms: _65  and  _67
REMARK   28  A    between atoms: _67  and  _68
REMARK   29  A    between atoms: _67  and  _70
REMARK   30  A    between atoms: _70  and  _71
REMARK   31  A    between atoms: _74  and  _76
REMARK   32  A    between atoms: _76  and  _77
REMARK   33  A    between atoms: _76  and  _79
REMARK   34  A    between atoms: _79  and  _80
REMARK   35  A    between atoms: _83  and  _85
REMARK   36  A    between atoms: _85  and  _86
REMARK   37  A    between atoms: _85  and  _88
REMARK   38  A    between atoms: _88  and  _89
REMARK   39  A    between atoms: _92  and  _94
REMARK   40  A    between atoms: _94  and  _95
REMARK   41  A    between atoms: _94  and  _97
REMARK   42  A    between atoms: _100  and  _102
REMARK   43  A    between atoms: _102  and  _103
REMARK   44  A    between atoms: _102  and  _105
REMARK   45  A    between atoms: _105  and  _106
REMARK   46  A    between atoms: _109  and  _111
REMARK   47  A    between atoms: _111  and  _112
REMARK   48  A    between atoms: _111  and  _114
REMARK   49  A    between atoms: _114  and  _115
REMARK   50  A    between atoms: _115  and  _116
REMARK   51  A    between atoms: _116  and  _117
REMARK   52  A    between atoms: _117  and  _118
REMARK   53  A    between atoms: _122  and  _124
REMARK   54  A    between atoms: _124  and  _125
REMARK   55  A    between atoms: _124  and  _127
REMARK   56  A    between atoms: _127  and  _128
REMARK   57  A    between atoms: _128  and  _129
REMARK   58  A    between atoms: _131  and  _133
REMARK   59  A    between atoms: _133  and  _134
REMARK   60  A    between atoms: _133  and  _136
REMARK   61  A    between atoms: _136  and  _137
REMARK   62  A    between atoms: _140  and  _142
REMARK   63  A    between atoms: _142  and  _143
REMARK   64  A    between atoms: _145  and  _147
REMARK   65  A    between atoms: _147  and  _148
REMARK   66  A    between atoms: _150  and  _152
REMARK   67  A    between atoms: _152  and  _153
REMARK   68  A    between atoms: _152  and  _155
REMARK   69  A    between atoms: _155  and  _156
REMARK   70  A    between atoms: _159  and  _161
REMARK   71  A    between atoms: _161  and  _162
REMARK   72  A    between atoms: _164  and  _166
REMARK   73  A    between atoms: _166  and  _167
REMARK   74  A    between atoms: _169  and  _171
REMARK   75  A    between atoms: _171  and  _172
REMARK   76  A    between atoms: _171  and  _174
REMARK   77  A    between atoms: _174  and  _175
REMARK   78  A    between atoms: _181  and  _183
REMARK   79  A    between atoms: _183  and  _184
REMARK   80  A    between atoms: _183  and  _186
REMARK   81  A    between atoms: _186  and  _187
REMARK   82  A    between atoms: _190  and  _192
REMARK   83  A    between atoms: _192  and  _193
REMARK   84  A    between atoms: _192  and  _195
REMARK   85  A    between atoms: _198  and  _200
REMARK   86  A    between atoms: _200  and  _201
REMARK   87  A    between atoms: _200  and  _203
REMARK   88  A    between atoms: _203  and  _204
REMARK   89  A    between atoms: _208  and  _209
REMARK   90  A    between atoms: _214  and  _216
REMARK   91  A    between atoms: _216  and  _217
REMARK   92  A    between atoms: _216  and  _219
REMARK   93  A    between atoms: _219  and  _220
REMARK   94  A    between atoms: _224  and  _225
REMARK   95  A    between atoms: _230  and  _232
REMARK   96  A    between atoms: _232  and  _233
REMARK   97  A    between atoms: _232  and  _235
REMARK   98  A    between atoms: _238  and  _240
REMARK   99  A    between atoms: _240  and  _241
REMARK  100  A    between atoms: _240  and  _243
REMARK  101  A    between atoms: _243  and  _244
REMARK  102  A    between atoms: _249  and  _251
REMARK  103  A    between atoms: _251  and  _252
REMARK  104  A    between atoms: _251  and  _254
REMARK  105  A    between atoms: _254  and  _255
REMARK  106  A    between atoms: _258  and  _260
REMARK  107  A    between atoms: _260  and  _261
REMARK  108  A    between atoms: _260  and  _263
REMARK  109  A    between atoms: _263  and  _264
REMARK  110  A    between atoms: _267  and  _269
REMARK  111  A    between atoms: _269  and  _270
REMARK  112  A    between atoms: _272  and  _274
REMARK  113  A    between atoms: _274  and  _275
REMARK  114  A    between atoms: _274  and  _277
REMARK  115  A    between atoms: _277  and  _278
REMARK  116  A    between atoms: _278  and  _279
REMARK  117  A    between atoms: _279  and  _280
REMARK  118  A    between atoms: _289  and  _291
REMARK  119  A    between atoms: _291  and  _292
REMARK  120  A    between atoms: _291  and  _294
REMARK  121  A    between atoms: _294  and  _295
REMARK  122  A    between atoms: _300  and  _302
REMARK  123  A    between atoms: _302  and  _303
REMARK  124  A    between atoms: _302  and  _305
REMARK  125  A    between atoms: _305  and  _306
REMARK  126  A    between atoms: _306  and  _307
REMARK  127  A    between atoms: _307  and  _308
REMARK  128  A    between atoms: _317  and  _319
REMARK  129  A    between atoms: _319  and  _320
REMARK  130  A    between atoms: _319  and  _322
REMARK  131  A    between atoms: _322  and  _323
REMARK  132  A    between atoms: _326  and  _328
REMARK  133  A    between atoms: _328  and  _329
REMARK  134  A    between atoms: _328  and  _331
REMARK  135  A    between atoms: _331  and  _332
REMARK  136  A    between atoms: _335  and  _337
REMARK  137  A    between atoms: _337  and  _338
REMARK  138  A    between atoms: _337  and  _340
REMARK  139  A    between atoms: _340  and  _341
REMARK  140  A    between atoms: _344  and  _346
REMARK  141  A    between atoms: _346  and  _347
REMARK  142  A    between atoms: _346  and  _349
REMARK  143  A    between atoms: _349  and  _350
REMARK  144  A    between atoms: _353  and  _355
REMARK  145  A    between atoms: _355  and  _356
REMARK  146  A    between atoms: _355  and  _358
REMARK  147  A    between atoms: _358  and  _359
REMARK  148  A    between atoms: _362  and  _364
REMARK  149  A    between atoms: _364  and  _365
REMARK  150  A    between atoms: _367  and  _369
REMARK  151  A    between atoms: _369  and  _370
REMARK  152  A    between atoms: _373  and  _375
REMARK  153  A    between atoms: _375  and  _376
REMARK  154  A    between atoms: _375  and  _378
REMARK  155  A    between atoms: _378  and  _379
REMARK  156  A    between atoms: _382  and  _384
REMARK  157  A    between atoms: _384  and  _385
REMARK  158  A    between atoms: _384  and  _387
REMARK  159  A    between atoms: _387  and  _388
REMARK  160  A    between atoms: _391  and  _393
REMARK  161  A    between atoms: _393  and  _394
REMARK  162  A    between atoms: _393  and  _396
REMARK  163  A    between atoms: _396  and  _397
REMARK  164  A    between atoms: _400  and  _402
REMARK  165  A    between atoms: _402  and  _403
REMARK  166  A    between atoms: _402  and  _405
REMARK  167  A    between atoms: _408  and  _410
REMARK  168  A    between atoms: _410  and  _411
REMARK  169  A    between atoms: _410  and  _413
REMARK  170  A    between atoms: _413  and  _414
REMARK  171  A    between atoms: _414  and  _415
REMARK  172  A    between atoms: _415  and  _416
REMARK  173  A    between atoms: _416  and  _417
REMARK  174  A    between atoms: _421  and  _423
REMARK  175  A    between atoms: _423  and  _424
REMARK  176  A    between atoms: _423  and  _426
REMARK  177  A    between atoms: _426  and  _427
REMARK  178  A    between atoms: _427  and  _428
REMARK  179  A    between atoms: _430  and  _432
REMARK  180  A    between atoms: _432  and  _433
REMARK  181  A    between atoms: _432  and  _435
REMARK  182  A    between atoms: _435  and  _436
REMARK  183  A    between atoms: _439  and  _441
REMARK  184  A    between atoms: _441  and  _442
REMARK  185  A    between atoms: _444  and  _446
REMARK  186  A    between atoms: _446  and  _447
REMARK  187  A    between atoms: _449  and  _451
REMARK  188  A    between atoms: _451  and  _452
REMARK  189  A    between atoms: _451  and  _454
REMARK  190  A    between atoms: _454  and  _455
REMARK  191  A    between atoms: _458  and  _460
REMARK  192  A    between atoms: _460  and  _461
REMARK  193  A    between atoms: _463  and  _465
REMARK  194  A    between atoms: _465  and  _466
REMARK  195  A    between atoms: _468  and  _470
REMARK  196  A    between atoms: _470  and  _471
REMARK  197  A    between atoms: _470  and  _473
REMARK  198  A    between atoms: _473  and  _474
REMARK  199  A    between atoms: _480  and  _482
REMARK  200  A    between atoms: _482  and  _483
REMARK  201  A    between atoms: _482  and  _485
REMARK  202  A    between atoms: _485  and  _486
REMARK  203  A    between atoms: _489  and  _491
REMARK  204  A    between atoms: _491  and  _492
REMARK  205  A    between atoms: _491  and  _494
REMARK  206  A    between atoms: _497  and  _499
REMARK  207  A    between atoms: _499  and  _500
REMARK  208  A    between atoms: _499  and  _502
REMARK  209  A    between atoms: _502  and  _503
REMARK  210  A    between atoms: _506  and  _508
REMARK  211  A    between atoms: _508  and  _509
REMARK  212  A    between atoms: _508  and  _511
REMARK  213  A    between atoms: _511  and  _512
REMARK  214  A    between atoms: _516  and  _517
REMARK  215  A    between atoms: _522  and  _524
REMARK  216  A    between atoms: _524  and  _525
REMARK  217  A    between atoms: _524  and  _527
REMARK  218  A    between atoms: _530  and  _532
REMARK  219  A    between atoms: _532  and  _533
REMARK  220  A    between atoms: _532  and  _535
REMARK  221  A    between atoms: _535  and  _536
REMARK  222  A    between atoms: _541  and  _543
REMARK  223  A    between atoms: _543  and  _544
REMARK  224  A    between atoms: _543  and  _546
REMARK  225  A    between atoms: _546  and  _547
REMARK  226  A    between atoms: _550  and  _552
REMARK  227  A    between atoms: _552  and  _553
REMARK  228  A    between atoms: _552  and  _555
REMARK  229  A    between atoms: _555  and  _556
REMARK  230  A    between atoms: _559  and  _561
REMARK  231  A    between atoms: _561  and  _562
REMARK  232  A    between atoms: _564  and  _566
REMARK  233  A    between atoms: _566  and  _567
REMARK  234  A    between atoms: _566  and  _569
REMARK  235  A    between atoms: _569  and  _570
REMARK  236  A    between atoms: _570  and  _571
REMARK  237  A    between atoms: _571  and  _572
REMARK  238  A    between atoms: _581  and  _583
REMARK  239  A    between atoms: _583  and  _584
REMARK  240  A    between atoms: _583  and  _586
REMARK  241  A    between atoms: _586  and  _587
REMARK                            x       y       z     vdW  Elec       q    Type
REMARK                         _______ _______ _______ _____ _____    ______ ____
ROOT
ATOM      1  O   HOH     1       9.646 -26.032  -9.511  0.00  0.00    +0.000 OA
ENDROOT
TORSDOF 0
REMARK  Name = ../refined-set-2016/2pk6/2pk6_pocket.pdb
REMARK  241 active torsions:
REMARK  status: ('A' for Active; 'I' for Inactive)
REMARK    1  A    between atoms: _1  and  _3
REMARK    2  A    between atoms: _3  and  _4
REMARK    3  A    between atoms: _3  and  _6
REMARK    4  A    between atoms: _6  and  _7
REMARK    5  A    between atoms: _7  and  _8
REMARK    6  A    between atoms: _8  and  _9
REMARK    7  A    between atoms: _18  and  _20
REMARK    8  A    between atoms: _20  and  _21
REMARK    9  A    between atoms: _20  and  _23
REMARK   10  A    between atoms: _23  and  _24
REMARK   11  A    between atoms: _27  and  _29
REMARK   12  A    between atoms: _29  and  _30
REMARK   13  A    between atoms: _29  and  _32
REMARK   14  A    between atoms: _32  and  _33
REMARK   15  A    between atoms: _36  and  _38
REMARK   16  A    between atoms: _38  and  _39
REMARK   17  A    between atoms: _38  and  _41
REMARK   18  A    between atoms: _41  and  _42
REMARK   19  A    between atoms: _45  and  _47
REMARK   20  A    between atoms: _47  and  _48
REMARK   21  A    between atoms: _47  and  _50
REMARK   22  A    between atoms: _50  and  _51
REMARK   23  A    between atoms: _54  and  _56
REMARK   24  A    between atoms: _56  and  _57
REMARK   25  A    between atoms: _59  and  _61
REMARK   26  A    between atoms: _61  and  _62
REMARK   27  A    between atoms: _65  and  _67
REMARK   28  A    between atoms: _67  and  _68
REMARK   29  A    between atoms: _67  and  _70
REMARK   30  A    between atoms: _70  and  _71
REMARK   31  A    between atoms: _74  and  _76
REMARK   32  A    between atoms: _76  and  _77
REMARK   33  A    between atoms: _76  and  _79
REMARK   34  A    between atoms: _79  and  _80
REMARK   35  A    between atoms: _83  and  _85
REMARK   36  A    between atoms: _85  and  _86
REMARK   37  A    between atoms: _85  and  _88
REMARK   38  A    between atoms: _88  and  _89
REMARK   39  A    between atoms: _92  and  _94
REMARK   40  A    between atoms: _94  and  _95
REMARK   41  A    between atoms: _94  and  _97
REMARK   42  A    between atoms: _100  and  _102
REMARK   43  A    between atoms: _102  and  _103
REMARK   44  A    between atoms: _102  and  _105
REMARK   45  A    between atoms: _105  and  _106
REMARK   46  A    between atoms: _109  and  _111
REMARK   47  A    between atoms: _111  and  _112
REMARK   48  A    between atoms: _111  and  _114
REMARK   49  A    between atoms: _114  and  _115
REMARK   50  A    between atoms: _115  and  _116
REMARK   51  A    between atoms: _116  and  _117
REMARK   52  A    between atoms: _117  and  _118
REMARK   53  A    between atoms: _122  and  _124
REMARK   54  A    between atoms: _124  and  _125
REMARK   55  A    between atoms: _124  and  _127
REMARK   56  A    between atoms: _127  and  _128
REMARK   57  A    between atoms: _128  and  _129
REMARK   58  A    between atoms: _131  and  _133
REMARK   59  A    between atoms: _133  and  _134
REMARK   60  A    between atoms: _133  and  _136
REMARK   61  A    between atoms: _136  and  _137
REMARK   62  A    between atoms: _140  and  _142
REMARK   63  A    between atoms: _142  and  _143
REMARK   64  A    between atoms: _145  and  _147
REMARK   65  A    between atoms: _147  and  _148
REMARK   66  A    between atoms: _150  and  _152
REMARK   67  A    between atoms: _152  and  _153
REMARK   68  A    between atoms: _152  and  _155
REMARK   69  A    between atoms: _155  and  _156
REMARK   70  A    between atoms: _159  and  _161
REMARK   71  A    between atoms: _161  and  _162
REMARK   72  A    between atoms: _164  and  _166
REMARK   73  A    between atoms: _166  and  _167
REMARK   74  A    between atoms: _169  and  _171
REMARK   75  A    between atoms: _171  and  _172
REMARK   76  A    between atoms: _171  and  _174
REMARK   77  A    between atoms: _174  and  _175
REMARK   78  A    between atoms: _181  and  _183
REMARK   79  A    between atoms: _183  and  _184
REMARK   80  A    between atoms: _183  and  _186
REMARK   81  A    between atoms: _186  and  _187
REMARK   82  A    between atoms: _190  and  _192
REMARK   83  A    between atoms: _192  and  _193
REMARK   84  A    between atoms: _192  and  _195
REMARK   85  A    between atoms: _198  and  _200
REMARK   86  A    between atoms: _200  and  _201
REMARK   87  A    between atoms: _200  and  _203
REMARK   88  A    between atoms: _203  and  _204
REMARK   89  A    between atoms: _208  and  _209
REMARK   90  A    between atoms: _214  and  _216
REMARK   91  A    between atoms: _216  and  _217
REMARK   92  A    between atoms: _216  and  _219
REMARK   93  A    between atoms: _219  and  _220
REMARK   94  A    between atoms: _224  and  _225
REMARK   95  A    between atoms: _230  and  _232
REMARK   96  A    between atoms: _232  and  _233
REMARK   97  A    between atoms: _232  and  _235
REMARK   98  A    between atoms: _238  and  _240
REMARK   99  A    between atoms: _240  and  _241
REMARK  100  A    between atoms: _240  and  _243
REMARK  101  A    between atoms: _243  and  _244
REMARK  102  A    between atoms: _249  and  _251
REMARK  103  A    between atoms: _251  and  _252
REMARK  104  A    between atoms: _251  and  _254
REMARK  105  A    between atoms: _254  and  _255
REMARK  106  A    between atoms: _258  and  _260
REMARK  107  A    between atoms: _260  and  _261
REMARK  108  A    between atoms: _260  and  _263
REMARK  109  A    between atoms: _263  and  _264
REMARK  110  A    between atoms: _267  and  _269
REMARK  111  A    between atoms: _269  and  _270
REMARK  112  A    between atoms: _272  and  _274
REMARK  113  A    between atoms: _274  and  _275
REMARK  114  A    between atoms: _274  and  _277
REMARK  115  A    between atoms: _277  and  _278
REMARK  116  A    between atoms: _278  and  _279
REMARK  117  A    between atoms: _279  and  _280
REMARK  118  A    between atoms: _289  and  _291
REMARK  119  A    between atoms: _291  and  _292
REMARK  120  A    between atoms: _291  and  _294
REMARK  121  A    between atoms: _294  and  _295
REMARK  122  A    between atoms: _300  and  _302
REMARK  123  A    between atoms: _302  and  _303
REMARK  124  A    between atoms: _302  and  _305
REMARK  125  A    between atoms: _305  and  _306
REMARK  126  A    between atoms: _306  and  _307
REMARK  127  A    between atoms: _307  and  _308
REMARK  128  A    between atoms: _317  and  _319
REMARK  129  A    between atoms: _319  and  _320
REMARK  130  A    between atoms: _319  and  _322
REMARK  131  A    between atoms: _322  and  _323
REMARK  132  A    between atoms: _326  and  _328
REMARK  133  A    between atoms: _328  and  _329
REMARK  134  A    between atoms: _328  and  _331
REMARK  135  A    between atoms: _331  and  _332
REMARK  136  A    between atoms: _335  and  _337
REMARK  137  A    between atoms: _337  and  _338
REMARK  138  A    between atoms: _337  and  _340
REMARK  139  A    between atoms: _340  and  _341
REMARK  140  A    between atoms: _344  and  _346
REMARK  141  A    between atoms: _346  and  _347
REMARK  142  A    between atoms: _346  and  _349
REMARK  143  A    between atoms: _349  and  _350
REMARK  144  A    between atoms: _353  and  _355
REMARK  145  A    between atoms: _355  and  _356
REMARK  146  A    between atoms: _355  and  _358
REMARK  147  A    between atoms: _358  and  _359
REMARK  148  A    between atoms: _362  and  _364
REMARK  149  A    between atoms: _364  and  _365
REMARK  150  A    between atoms: _367  and  _369
REMARK  151  A    between atoms: _369  and  _370
REMARK  152  A    between atoms: _373  and  _375
REMARK  153  A    between atoms: _375  and  _376
REMARK  154  A    between atoms: _375  and  _378
REMARK  155  A    between atoms: _378  and  _379
REMARK  156  A    between atoms: _382  and  _384
REMARK  157  A    between atoms: _384  and  _385
REMARK  158  A    between atoms: _384  and  _387
REMARK  159  A    between atoms: _387  and  _388
REMARK  160  A    between atoms: _391  and  _393
REMARK  161  A    between atoms: _393  and  _394
REMARK  162  A    between atoms: _393  and  _396
REMARK  163  A    between atoms: _396  and  _397
REMARK  164  A    between atoms: _400  and  _402
REMARK  165  A    between atoms: _402  and  _403
REMARK  166  A    between atoms: _402  and  _405
REMARK  167  A    between atoms: _408  and  _410
REMARK  168  A    between atoms: _410  and  _411
REMARK  169  A    between atoms: _410  and  _413
REMARK  170  A    between atoms: _413  and  _414
REMARK  171  A    between atoms: _414  and  _415
REMARK  172  A    between atoms: _415  and  _416
REMARK  173  A    between atoms: _416  and  _417
REMARK  174  A    between atoms: _421  and  _423
REMARK  175  A    between atoms: _423  and  _424
REMARK  176  A    between atoms: _423  and  _426
REMARK  177  A    between atoms: _426  and  _427
REMARK  178  A    between atoms: _427  and  _428
REMARK  179  A    between atoms: _430  and  _432
REMARK  180  A    between atoms: _432  and  _433
REMARK  181  A    between atoms: _432  and  _435
REMARK  182  A    between atoms: _435  and  _436
REMARK  183  A    between atoms: _439  and  _441
REMARK  184  A    between atoms: _441  and  _442
REMARK  185  A    between atoms: _444  and  _446
REMARK  186  A    between atoms: _446  and  _447
REMARK  187  A    between atoms: _449  and  _451
REMARK  188  A    between atoms: _451  and  _452
REMARK  189  A    between atoms: _451  and  _454
REMARK  190  A    between atoms: _454  and  _455
REMARK  191  A    between atoms: _458  and  _460
REMARK  192  A    between atoms: _460  and  _461
REMARK  193  A    between atoms: _463  and  _465
REMARK  194  A    between atoms: _465  and  _466
REMARK  195  A    between atoms: _468  and  _470
REMARK  196  A    between atoms: _470  and  _471
REMARK  197  A    between atoms: _470  and  _473
REMARK  198  A    between atoms: _473  and  _474
REMARK  199  A    between atoms: _480  and  _482
REMARK  200  A    between atoms: _482  and  _483
REMARK  201  A    between atoms: _482  and  _485
REMARK  202  A    between atoms: _485  and  _486
REMARK  203  A    between atoms: _489  and  _491
REMARK  204  A    between atoms: _491  and  _492
REMARK  205  A    between atoms: _491  and  _494
REMARK  206  A    between atoms: _497  and  _499
REMARK  207  A    between atoms: _499  and  _500
REMARK  208  A    between atoms: _499  and  _502
REMARK  209  A    between atoms: _502  and  _503
REMARK  210  A    between atoms: _506  and  _508
REMARK  211  A    between atoms: _508  and  _509
REMARK  212  A    between atoms: _508  and  _511
REMARK  213  A    between atoms: _511  and  _512
REMARK  214  A    between atoms: _516  and  _517
REMARK  215  A    between atoms: _522  and  _524
REMARK  216  A    between atoms: _524  and  _525
REMARK  217  A    between atoms: _524  and  _527
REMARK  218  A    between atoms: _530  and  _532
REMARK  219  A    between atoms: _532  and  _533
REMARK  220  A    between atoms: _532  and  _535
REMARK  221  A    between atoms: _535  and  _536
REMARK  222  A    between atoms: _541  and  _543
REMARK  223  A    between atoms: _543  and  _544
REMARK  224  A    between atoms: _543  and  _546
REMARK  225  A    between atoms: _546  and  _547
REMARK  226  A    between atoms: _550  and  _552
REMARK  227  A    between atoms: _552  and  _553
REMARK  228  A    between atoms: _552  and  _555
REMARK  229  A    between atoms: _555  and  _556
REMARK  230  A    between atoms: _559  and  _561
REMARK  231  A    between atoms: _561  and  _562
REMARK  232  A    between atoms: _564  and  _566
REMARK  233  A    between atoms: _566  and  _567
REMARK  234  A    between atoms: _566  and  _569
REMARK  235  A    between atoms: _569  and  _570
REMARK  236  A    between atoms: _570  and  _571
REMARK  237  A    between atoms: _571  and  _572
REMARK  238  A    between atoms: _581  and  _583
REMARK  239  A    between atoms: _583  and  _584
REMARK  240  A    between atoms: _583  and  _586
REMARK  241  A    between atoms: _586  and  _587
REMARK                            x       y       z     vdW  Elec       q    Type
REMARK                         _______ _______ _______ _____ _____    ______ ____
ROOT
ATOM      1  O   HOH     1       6.035 -15.771 -19.904  0.00  0.00    +0.000 OA
ENDROOT
TORSDOF 0
REMARK  Name = ../refined-set-2016/2pk6/2pk6_pocket.pdb
REMARK  241 active torsions:
REMARK  status: ('A' for Active; 'I' for Inactive)
REMARK    1  A    between atoms: _1  and  _3
REMARK    2  A    between atoms: _3  and  _4
REMARK    3  A    between atoms: _3  and  _6
REMARK    4  A    between atoms: _6  and  _7
REMARK    5  A    between atoms: _7  and  _8
REMARK    6  A    between atoms: _8  and  _9
REMARK    7  A    between atoms: _18  and  _20
REMARK    8  A    between atoms: _20  and  _21
REMARK    9  A    between atoms: _20  and  _23
REMARK   10  A    between atoms: _23  and  _24
REMARK   11  A    between atoms: _27  and  _29
REMARK   12  A    between atoms: _29  and  _30
REMARK   13  A    between atoms: _29  and  _32
REMARK   14  A    between atoms: _32  and  _33
REMARK   15  A    between atoms: _36  and  _38
REMARK   16  A    between atoms: _38  and  _39
REMARK   17  A    between atoms: _38  and  _41
REMARK   18  A    between atoms: _41  and  _42
REMARK   19  A    between atoms: _45  and  _47
REMARK   20  A    between atoms: _47  and  _48
REMARK   21  A    between atoms: _47  and  _50
REMARK   22  A    between atoms: _50  and  _51
REMARK   23  A    between atoms: _54  and  _56
REMARK   24  A    between atoms: _56  and  _57
REMARK   25  A    between atoms: _59  and  _61
REMARK   26  A    between atoms: _61  and  _62
REMARK   27  A    between atoms: _65  and  _67
REMARK   28  A    between atoms: _67  and  _68
REMARK   29  A    between atoms: _67  and  _70
REMARK   30  A    between atoms: _70  and  _71
REMARK   31  A    between atoms: _74  and  _76
REMARK   32  A    between atoms: _76  and  _77
REMARK   33  A    between atoms: _76  and  _79
REMARK   34  A    between atoms: _79  and  _80
REMARK   35  A    between atoms: _83  and  _85
REMARK   36  A    between atoms: _85  and  _86
REMARK   37  A    between atoms: _85  and  _88
REMARK   38  A    between atoms: _88  and  _89
REMARK   39  A    between atoms: _92  and  _94
REMARK   40  A    between atoms: _94  and  _95
REMARK   41  A    between atoms: _94  and  _97
REMARK   42  A    between atoms: _100  and  _102
REMARK   43  A    between atoms: _102  and  _103
REMARK   44  A    between atoms: _102  and  _105
REMARK   45  A    between atoms: _105  and  _106
REMARK   46  A    between atoms: _109  and  _111
REMARK   47  A    between atoms: _111  and  _112
REMARK   48  A    between atoms: _111  and  _114
REMARK   49  A    between atoms: _114  and  _115
REMARK   50  A    between atoms: _115  and  _116
REMARK   51  A    between atoms: _116  and  _117
REMARK   52  A    between atoms: _117  and  _118
REMARK   53  A    between atoms: _122  and  _124
REMARK   54  A    between atoms: _124  and  _125
REMARK   55  A    between atoms: _124  and  _127
REMARK   56  A    between atoms: _127  and  _128
REMARK   57  A    between atoms: _128  and  _129
REMARK   58  A    between atoms: _131  and  _133
REMARK   59  A    between atoms: _133  and  _134
REMARK   60  A    between atoms: _133  and  _136
REMARK   61  A    between atoms: _136  and  _137
REMARK   62  A    between atoms: _140  and  _142
REMARK   63  A    between atoms: _142  and  _143
REMARK   64  A    between atoms: _145  and  _147
REMARK   65  A    between atoms: _147  and  _148
REMARK   66  A    between atoms: _150  and  _152
REMARK   67  A    between atoms: _152  and  _153
REMARK   68  A    between atoms: _152  and  _155
REMARK   69  A    between atoms: _155  and  _156
REMARK   70  A    between atoms: _159  and  _161
REMARK   71  A    between atoms: _161  and  _162
REMARK   72  A    between atoms: _164  and  _166
REMARK   73  A    between atoms: _166  and  _167
REMARK   74  A    between atoms: _169  and  _171
REMARK   75  A    between atoms: _171  and  _172
REMARK   76  A    between atoms: _171  and  _174
REMARK   77  A    between atoms: _174  and  _175
REMARK   78  A    between atoms: _181  and  _183
REMARK   79  A    between atoms: _183  and  _184
REMARK   80  A    between atoms: _183  and  _186
REMARK   81  A    between atoms: _186  and  _187
REMARK   82  A    between atoms: _190  and  _192
REMARK   83  A    between atoms: _192  and  _193
REMARK   84  A    between atoms: _192  and  _195
REMARK   85  A    between atoms: _198  and  _200
REMARK   86  A    between atoms: _200  and  _201
REMARK   87  A    between atoms: _200  and  _203
REMARK   88  A    between atoms: _203  and  _204
REMARK   89  A    between atoms: _208  and  _209
REMARK   90  A    between atoms: _214  and  _216
REMARK   91  A    between atoms: _216  and  _217
REMARK   92  A    between atoms: _216  and  _219
REMARK   93  A    between atoms: _219  and  _220
REMARK   94  A    between atoms: _224  and  _225
REMARK   95  A    between atoms: _230  and  _232
REMARK   96  A    between atoms: _232  and  _233
REMARK   97  A    between atoms: _232  and  _235
REMARK   98  A    between atoms: _238  and  _240
REMARK   99  A    between atoms: _240  and  _241
REMARK  100  A    between atoms: _240  and  _243
REMARK  101  A    between atoms: _243  and  _244
REMARK  102  A    between atoms: _249  and  _251
REMARK  103  A    between atoms: _251  and  _252
REMARK  104  A    between atoms: _251  and  _254
REMARK  105  A    between atoms: _254  and  _255
REMARK  106  A    between atoms: _258  and  _260
REMARK  107  A    between atoms: _260  and  _261
REMARK  108  A    between atoms: _260  and  _263
REMARK  109  A    between atoms: _263  and  _264
REMARK  110  A    between atoms: _267  and  _269
REMARK  111  A    between atoms: _269  and  _270
REMARK  112  A    between atoms: _272  and  _274
REMARK  113  A    between atoms: _274  and  _275
REMARK  114  A    between atoms: _274  and  _277
REMARK  115  A    between atoms: _277  and  _278
REMARK  116  A    between atoms: _278  and  _279
REMARK  117  A    between atoms: _279  and  _280
REMARK  118  A    between atoms: _289  and  _291
REMARK  119  A    between atoms: _291  and  _292
REMARK  120  A    between atoms: _291  and  _294
REMARK  121  A    between atoms: _294  and  _295
REMARK  122  A    between atoms: _300  and  _302
REMARK  123  A    between atoms: _302  and  _303
REMARK  124  A    between atoms: _302  and  _305
REMARK  125  A    between atoms: _305  and  _306
REMARK  126  A    between atoms: _306  and  _307
REMARK  127  A    between atoms: _307  and  _308
REMARK  128  A    between atoms: _317  and  _319
REMARK  129  A    between atoms: _319  and  _320
REMARK  130  A    between atoms: _319  and  _322
REMARK  131  A    between atoms: _322  and  _323
REMARK  132  A    between atoms: _326  and  _328
REMARK  133  A    between atoms: _328  and  _329
REMARK  134  A    between atoms: _328  and  _331
REMARK  135  A    between atoms: _331  and  _332
REMARK  136  A    between atoms: _335  and  _337
REMARK  137  A    between atoms: _337  and  _338
REMARK  138  A    between atoms: _337  and  _340
REMARK  139  A    between atoms: _340  and  _341
REMARK  140  A    between atoms: _344  and  _346
REMARK  141  A    between atoms: _346  and  _347
REMARK  142  A    between atoms: _346  and  _349
REMARK  143  A    between atoms: _349  and  _350
REMARK  144  A    between atoms: _353  and  _355
REMARK  145  A    between atoms: _355  and  _356
REMARK  146  A    between atoms: _355  and  _358
REMARK  147  A    between atoms: _358  and  _359
REMARK  148  A    between atoms: _362  and  _364
REMARK  149  A    between atoms: _364  and  _365
REMARK  150  A    between atoms: _367  and  _369
REMARK  151  A    between atoms: _369  and  _370
REMARK  152  A    between atoms: _373  and  _375
REMARK  153  A    between atoms: _375  and  _376
REMARK  154  A    between atoms: _375  and  _378
REMARK  155  A    between atoms: _378  and  _379
REMARK  156  A    between atoms: _382  and  _384
REMARK  157  A    between atoms: _384  and  _385
REMARK  158  A    between atoms: _384  and  _387
REMARK  159  A    between atoms: _387  and  _388
REMARK  160  A    between atoms: _391  and  _393
REMARK  161  A    between atoms: _393  and  _394
REMARK  162  A    between atoms: _393  and  _396
REMARK  163  A    between atoms: _396  and  _397
REMARK  164  A    between atoms: _400  and  _402
REMARK  165  A    between atoms: _402  and  _403
REMARK  166  A    between atoms: _402  and  _405
REMARK  167  A    between atoms: _408  and  _410
REMARK  168  A    between atoms: _410  and  _411
REMARK  169  A    between atoms: _410  and  _413
REMARK  170  A    between atoms: _413  and  _414
REMARK  171  A    between atoms: _414  and  _415
REMARK  172  A    between atoms: _415  and  _416
REMARK  173  A    between atoms: _416  and  _417
REMARK  174  A    between atoms: _421  and  _423
REMARK  175  A    between atoms: _423  and  _424
REMARK  176  A    between atoms: _423  and  _426
REMARK  177  A    between atoms: _426  and  _427
REMARK  178  A    between atoms: _427  and  _428
REMARK  179  A    between atoms: _430  and  _432
REMARK  180  A    between atoms: _432  and  _433
REMARK  181  A    between atoms: _432  and  _435
REMARK  182  A    between atoms: _435  and  _436
REMARK  183  A    between atoms: _439  and  _441
REMARK  184  A    between atoms: _441  and  _442
REMARK  185  A    between atoms: _444  and  _446
REMARK  186  A    between atoms: _446  and  _447
REMARK  187  A    between atoms: _449  and  _451
REMARK  188  A    between atoms: _451  and  _452
REMARK  189  A    between atoms: _451  and  _454
REMARK  190  A    between atoms: _454  and  _455
REMARK  191  A    between atoms: _458  and  _460
REMARK  192  A    between atoms: _460  and  _461
REMARK  193  A    between atoms: _463  and  _465
REMARK  194  A    between atoms: _465  and  _466
REMARK  195  A    between atoms: _468  and  _470
REMARK  196  A    between atoms: _470  and  _471
REMARK  197  A    between atoms: _470  and  _473
REMARK  198  A    between atoms: _473  and  _474
REMARK  199  A    between atoms: _480  and  _482
REMARK  200  A    between atoms: _482  and  _483
REMARK  201  A    between atoms: _482  and  _485
REMARK  202  A    between atoms: _485  and  _486
REMARK  203  A    between atoms: _489  and  _491
REMARK  204  A    between atoms: _491  and  _492
REMARK  205  A    between atoms: _491  and  _494
REMARK  206  A    between atoms: _497  and  _499
REMARK  207  A    between atoms: _499  and  _500
REMARK  208  A    between atoms: _499  and  _502
REMARK  209  A    between atoms: _502  and  _503
REMARK  210  A    between atoms: _506  and  _508
REMARK  211  A    between atoms: _508  and  _509
REMARK  212  A    between atoms: _508  and  _511
REMARK  213  A    between atoms: _511  and  _512
REMARK  214  A    between atoms: _516  and  _517
REMARK  215  A    between atoms: _522  and  _524
REMARK  216  A    between atoms: _524  and  _525
REMARK  217  A    between atoms: _524  and  _527
REMARK  218  A    between atoms: _530  and  _532
REMARK  219  A    between atoms: _532  and  _533
REMARK  220  A    between atoms: _532  and  _535
REMARK  221  A    between atoms: _535  and  _536
REMARK  222  A    between atoms: _541  and  _543
REMARK  223  A    between atoms: _543  and  _544
REMARK  224  A    between atoms: _543  and  _546
REMARK  225  A    between atoms: _546  and  _547
REMARK  226  A    between atoms: _550  and  _552
REMARK  227  A    between atoms: _552  and  _553
REMARK  228  A    between atoms: _552  and  _555
REMARK  229  A    between atoms: _555  and  _556
REMARK  230  A    between atoms: _559  and  _561
REMARK  231  A    between atoms: _561  and  _562
REMARK  232  A    between atoms: _564  and  _566
REMARK  233  A    between atoms: _566  and  _567
REMARK  234  A    between atoms: _566  and  _569
REMARK  235  A    between atoms: _569  and  _570
REMARK  236  A    between atoms: _570  and  _571
REMARK  237  A    between atoms: _571  and  _572
REMARK  238  A    between atoms: _581  and  _583
REMARK  239  A    between atoms: _583  and  _584
REMARK  240  A    between atoms: _583  and  _586
REMARK  241  A    between atoms: _586  and  _587
REMARK                            x       y       z     vdW  Elec       q    Type
REMARK                         _______ _______ _______ _____ _____    ______ ____
ROOT
ATOM      1  O   HOH     1       5.114 -17.073 -21.822  0.00  0.00    +0.000 OA
ENDROOT
TORSDOF 0
REMARK  Name = ../refined-set-2016/2pk6/2pk6_pocket.pdb
REMARK  241 active torsions:
REMARK  status: ('A' for Active; 'I' for Inactive)
REMARK    1  A    between atoms: _1  and  _3
REMARK    2  A    between atoms: _3  and  _4
REMARK    3  A    between atoms: _3  and  _6
REMARK    4  A    between atoms: _6  and  _7
REMARK    5  A    between atoms: _7  and  _8
REMARK    6  A    between atoms: _8  and  _9
REMARK    7  A    between atoms: _18  and  _20
REMARK    8  A    between atoms: _20  and  _21
REMARK    9  A    between atoms: _20  and  _23
REMARK   10  A    between atoms: _23  and  _24
REMARK   11  A    between atoms: _27  and  _29
REMARK   12  A    between atoms: _29  and  _30
REMARK   13  A    between atoms: _29  and  _32
REMARK   14  A    between atoms: _32  and  _33
REMARK   15  A    between atoms: _36  and  _38
REMARK   16  A    between atoms: _38  and  _39
REMARK   17  A    between atoms: _38  and  _41
REMARK   18  A    between atoms: _41  and  _42
REMARK   19  A    between atoms: _45  and  _47
REMARK   20  A    between atoms: _47  and  _48
REMARK   21  A    between atoms: _47  and  _50
REMARK   22  A    between atoms: _50  and  _51
REMARK   23  A    between atoms: _54  and  _56
REMARK   24  A    between atoms: _56  and  _57
REMARK   25  A    between atoms: _59  and  _61
REMARK   26  A    between atoms: _61  and  _62
REMARK   27  A    between atoms: _65  and  _67
REMARK   28  A    between atoms: _67  and  _68
REMARK   29  A    between atoms: _67  and  _70
REMARK   30  A    between atoms: _70  and  _71
REMARK   31  A    between atoms: _74  and  _76
REMARK   32  A    between atoms: _76  and  _77
REMARK   33  A    between atoms: _76  and  _79
REMARK   34  A    between atoms: _79  and  _80
REMARK   35  A    between atoms: _83  and  _85
REMARK   36  A    between atoms: _85  and  _86
REMARK   37  A    between atoms: _85  and  _88
REMARK   38  A    between atoms: _88  and  _89
REMARK   39  A    between atoms: _92  and  _94
REMARK   40  A    between atoms: _94  and  _95
REMARK   41  A    between atoms: _94  and  _97
REMARK   42  A    between atoms: _100  and  _102
REMARK   43  A    between atoms: _102  and  _103
REMARK   44  A    between atoms: _102  and  _105
REMARK   45  A    between atoms: _105  and  _106
REMARK   46  A    between atoms: _109  and  _111
REMARK   47  A    between atoms: _111  and  _112
REMARK   48  A    between atoms: _111  and  _114
REMARK   49  A    between atoms: _114  and  _115
REMARK   50  A    between atoms: _115  and  _116
REMARK   51  A    between atoms: _116  and  _117
REMARK   52  A    between atoms: _117  and  _118
REMARK   53  A    between atoms: _122  and  _124
REMARK   54  A    between atoms: _124  and  _125
REMARK   55  A    between atoms: _124  and  _127
REMARK   56  A    between atoms: _127  and  _128
REMARK   57  A    between atoms: _128  and  _129
REMARK   58  A    between atoms: _131  and  _133
REMARK   59  A    between atoms: _133  and  _134
REMARK   60  A    between atoms: _133  and  _136
REMARK   61  A    between atoms: _136  and  _137
REMARK   62  A    between atoms: _140  and  _142
REMARK   63  A    between atoms: _142  and  _143
REMARK   64  A    between atoms: _145  and  _147
REMARK   65  A    between atoms: _147  and  _148
REMARK   66  A    between atoms: _150  and  _152
REMARK   67  A    between atoms: _152  and  _153
REMARK   68  A    between atoms: _152  and  _155
REMARK   69  A    between atoms: _155  and  _156
REMARK   70  A    between atoms: _159  and  _161
REMARK   71  A    between atoms: _161  and  _162
REMARK   72  A    between atoms: _164  and  _166
REMARK   73  A    between atoms: _166  and  _167
REMARK   74  A    between atoms: _169  and  _171
REMARK   75  A    between atoms: _171  and  _172
REMARK   76  A    between atoms: _171  and  _174
REMARK   77  A    between atoms: _174  and  _175
REMARK   78  A    between atoms: _181  and  _183
REMARK   79  A    between atoms: _183  and  _184
REMARK   80  A    between atoms: _183  and  _186
REMARK   81  A    between atoms: _186  and  _187
REMARK   82  A    between atoms: _190  and  _192
REMARK   83  A    between atoms: _192  and  _193
REMARK   84  A    between atoms: _192  and  _195
REMARK   85  A    between atoms: _198  and  _200
REMARK   86  A    between atoms: _200  and  _201
REMARK   87  A    between atoms: _200  and  _203
REMARK   88  A    between atoms: _203  and  _204
REMARK   89  A    between atoms: _208  and  _209
REMARK   90  A    between atoms: _214  and  _216
REMARK   91  A    between atoms: _216  and  _217
REMARK   92  A    between atoms: _216  and  _219
REMARK   93  A    between atoms: _219  and  _220
REMARK   94  A    between atoms: _224  and  _225
REMARK   95  A    between atoms: _230  and  _232
REMARK   96  A    between atoms: _232  and  _233
REMARK   97  A    between atoms: _232  and  _235
REMARK   98  A    between atoms: _238  and  _240
REMARK   99  A    between atoms: _240  and  _241
REMARK  100  A    between atoms: _240  and  _243
REMARK  101  A    between atoms: _243  and  _244
REMARK  102  A    between atoms: _249  and  _251
REMARK  103  A    between atoms: _251  and  _252
REMARK  104  A    between atoms: _251  and  _254
REMARK  105  A    between atoms: _254  and  _255
REMARK  106  A    between atoms: _258  and  _260
REMARK  107  A    between atoms: _260  and  _261
REMARK  108  A    between atoms: _260  and  _263
REMARK  109  A    between atoms: _263  and  _264
REMARK  110  A    between atoms: _267  and  _269
REMARK  111  A    between atoms: _269  and  _270
REMARK  112  A    between atoms: _272  and  _274
REMARK  113  A    between atoms: _274  and  _275
REMARK  114  A    between atoms: _274  and  _277
REMARK  115  A    between atoms: _277  and  _278
REMARK  116  A    between atoms: _278  and  _279
REMARK  117  A    between atoms: _279  and  _280
REMARK  118  A    between atoms: _289  and  _291
REMARK  119  A    between atoms: _291  and  _292
REMARK  120  A    between atoms: _291  and  _294
REMARK  121  A    between atoms: _294  and  _295
REMARK  122  A    between atoms: _300  and  _302
REMARK  123  A    between atoms: _302  and  _303
REMARK  124  A    between atoms: _302  and  _305
REMARK  125  A    between atoms: _305  and  _306
REMARK  126  A    between atoms: _306  and  _307
REMARK  127  A    between atoms: _307  and  _308
REMARK  128  A    between atoms: _317  and  _319
REMARK  129  A    between atoms: _319  and  _320
REMARK  130  A    between atoms: _319  and  _322
REMARK  131  A    between atoms: _322  and  _323
REMARK  132  A    between atoms: _326  and  _328
REMARK  133  A    between atoms: _328  and  _329
REMARK  134  A    between atoms: _328  and  _331
REMARK  135  A    between atoms: _331  and  _332
REMARK  136  A    between atoms: _335  and  _337
REMARK  137  A    between atoms: _337  and  _338
REMARK  138  A    between atoms: _337  and  _340
REMARK  139  A    between atoms: _340  and  _341
REMARK  140  A    between atoms: _344  and  _346
REMARK  141  A    between atoms: _346  and  _347
REMARK  142  A    between atoms: _346  and  _349
REMARK  143  A    between atoms: _349  and  _350
REMARK  144  A    between atoms: _353  and  _355
REMARK  145  A    between atoms: _355  and  _356
REMARK  146  A    between atoms: _355  and  _358
REMARK  147  A    between atoms: _358  and  _359
REMARK  148  A    between atoms: _362  and  _364
REMARK  149  A    between atoms: _364  and  _365
REMARK  150  A    between atoms: _367  and  _369
REMARK  151  A    between atoms: _369  and  _370
REMARK  152  A    between atoms: _373  and  _375
REMARK  153  A    between atoms: _375  and  _376
REMARK  154  A    between atoms: _375  and  _378
REMARK  155  A    between atoms: _378  and  _379
REMARK  156  A    between atoms: _382  and  _384
REMARK  157  A    between atoms: _384  and  _385
REMARK  158  A    between atoms: _384  and  _387
REMARK  159  A    between atoms: _387  and  _388
REMARK  160  A    between atoms: _391  and  _393
REMARK  161  A    between atoms: _393  and  _394
REMARK  162  A    between atoms: _393  and  _396
REMARK  163  A    between atoms: _396  and  _397
REMARK  164  A    between atoms: _400  and  _402
REMARK  165  A    between atoms: _402  and  _403
REMARK  166  A    between atoms: _402  and  _405
REMARK  167  A    between atoms: _408  and  _410
REMARK  168  A    between atoms: _410  and  _411
REMARK  169  A    between atoms: _410  and  _413
REMARK  170  A    between atoms: _413  and  _414
REMARK  171  A    between atoms: _414  and  _415
REMARK  172  A    between atoms: _415  and  _416
REMARK  173  A    between atoms: _416  and  _417
REMARK  174  A    between atoms: _421  and  _423
REMARK  175  A    between atoms: _423  and  _424
REMARK  176  A    between atoms: _423  and  _426
REMARK  177  A    between atoms: _426  and  _427
REMARK  178  A    between atoms: _427  and  _428
REMARK  179  A    between atoms: _430  and  _432
REMARK  180  A    between atoms: _432  and  _433
REMARK  181  A    between atoms: _432  and  _435
REMARK  182  A    between atoms: _435  and  _436
REMARK  183  A    between atoms: _439  and  _441
REMARK  184  A    between atoms: _441  and  _442
REMARK  185  A    between atoms: _444  and  _446
REMARK  186  A    between atoms: _446  and  _447
REMARK  187  A    between atoms: _449  and  _451
REMARK  188  A    between atoms: _451  and  _452
REMARK  189  A    between atoms: _451  and  _454
REMARK  190  A    between atoms: _454  and  _455
REMARK  191  A    between atoms: _458  and  _460
REMARK  192  A    between atoms: _460  and  _461
REMARK  193  A    between atoms: _463  and  _465
REMARK  194  A    between atoms: _465  and  _466
REMARK  195  A    between atoms: _468  and  _470
REMARK  196  A    between atoms: _470  and  _471
REMARK  197  A    between atoms: _470  and  _473
REMARK  198  A    between atoms: _473  and  _474
REMARK  199  A    between atoms: _480  and  _482
REMARK  200  A    between atoms: _482  and  _483
REMARK  201  A    between atoms: _482  and  _485
REMARK  202  A    between atoms: _485  and  _486
REMARK  203  A    between atoms: _489  and  _491
REMARK  204  A    between atoms: _491  and  _492
REMARK  205  A    between atoms: _491  and  _494
REMARK  206  A    between atoms: _497  and  _499
REMARK  207  A    between atoms: _499  and  _500
REMARK  208  A    between atoms: _499  and  _502
REMARK  209  A    between atoms: _502  and  _503
REMARK  210  A    between atoms: _506  and  _508
REMARK  211  A    between atoms: _508  and  _509
REMARK  212  A    between atoms: _508  and  _511
REMARK  213  A    between atoms: _511  and  _512
REMARK  214  A    between atoms: _516  and  _517
REMARK  215  A    between atoms: _522  and  _524
REMARK  216  A    between atoms: _524  and  _525
REMARK  217  A    between atoms: _524  and  _527
REMARK  218  A    between atoms: _530  and  _532
REMARK  219  A    between atoms: _532  and  _533
REMARK  220  A    between atoms: _532  and  _535
REMARK  221  A    between atoms: _535  and  _536
REMARK  222  A    between atoms: _541  and  _543
REMARK  223  A    between atoms: _543  and  _544
REMARK  224  A    between atoms: _543  and  _546
REMARK  225  A    between atoms: _546  and  _547
REMARK  226  A    between atoms: _550  and  _552
REMARK  227  A    between atoms: _552  and  _553
REMARK  228  A    between atoms: _552  and  _555
REMARK  229  A    between atoms: _555  and  _556
REMARK  230  A    between atoms: _559  and  _561
REMARK  231  A    between atoms: _561  and  _562
REMARK  232  A    between atoms: _564  and  _566
REMARK  233  A    between atoms: _566  and  _567
REMARK  234  A    between atoms: _566  and  _569
REMARK  235  A    between atoms: _569  and  _570
REMARK  236  A    between atoms: _570  and  _571
REMARK  237  A    between atoms: _571  and  _572
REMARK  238  A    between atoms: _581  and  _583
REMARK  239  A    between atoms: _583  and  _584
REMARK  240  A    between atoms: _583  and  _586
REMARK  241  A    between atoms: _586  and  _587
REMARK                            x       y       z     vdW  Elec       q    Type
REMARK                         _______ _______ _______ _____ _____    ______ ____
ROOT
ATOM      1  O   HOH     1      19.561 -30.654 -18.215  0.00  0.00    +0.000 OA
ENDROOT
TORSDOF 0
REMARK  Name = ../refined-set-2016/2pk6/2pk6_pocket.pdb
REMARK  241 active torsions:
REMARK  status: ('A' for Active; 'I' for Inactive)
REMARK    1  A    between atoms: _1  and  _3
REMARK    2  A    between atoms: _3  and  _4
REMARK    3  A    between atoms: _3  and  _6
REMARK    4  A    between atoms: _6  and  _7
REMARK    5  A    between atoms: _7  and  _8
REMARK    6  A    between atoms: _8  and  _9
REMARK    7  A    between atoms: _18  and  _20
REMARK    8  A    between atoms: _20  and  _21
REMARK    9  A    between atoms: _20  and  _23
REMARK   10  A    between atoms: _23  and  _24
REMARK   11  A    between atoms: _27  and  _29
REMARK   12  A    between atoms: _29  and  _30
REMARK   13  A    between atoms: _29  and  _32
REMARK   14  A    between atoms: _32  and  _33
REMARK   15  A    between atoms: _36  and  _38
REMARK   16  A    between atoms: _38  and  _39
REMARK   17  A    between atoms: _38  and  _41
REMARK   18  A    between atoms: _41  and  _42
REMARK   19  A    between atoms: _45  and  _47
REMARK   20  A    between atoms: _47  and  _48
REMARK   21  A    between atoms: _47  and  _50
REMARK   22  A    between atoms: _50  and  _51
REMARK   23  A    between atoms: _54  and  _56
REMARK   24  A    between atoms: _56  and  _57
REMARK   25  A    between atoms: _59  and  _61
REMARK   26  A    between atoms: _61  and  _62
REMARK   27  A    between atoms: _65  and  _67
REMARK   28  A    between atoms: _67  and  _68
REMARK   29  A    between atoms: _67  and  _70
REMARK   30  A    between atoms: _70  and  _71
REMARK   31  A    between atoms: _74  and  _76
REMARK   32  A    between atoms: _76  and  _77
REMARK   33  A    between atoms: _76  and  _79
REMARK   34  A    between atoms: _79  and  _80
REMARK   35  A    between atoms: _83  and  _85
REMARK   36  A    between atoms: _85  and  _86
REMARK   37  A    between atoms: _85  and  _88
REMARK   38  A    between atoms: _88  and  _89
REMARK   39  A    between atoms: _92  and  _94
REMARK   40  A    between atoms: _94  and  _95
REMARK   41  A    between atoms: _94  and  _97
REMARK   42  A    between atoms: _100  and  _102
REMARK   43  A    between atoms: _102  and  _103
REMARK   44  A    between atoms: _102  and  _105
REMARK   45  A    between atoms: _105  and  _106
REMARK   46  A    between atoms: _109  and  _111
REMARK   47  A    between atoms: _111  and  _112
REMARK   48  A    between atoms: _111  and  _114
REMARK   49  A    between atoms: _114  and  _115
REMARK   50  A    between atoms: _115  and  _116
REMARK   51  A    between atoms: _116  and  _117
REMARK   52  A    between atoms: _117  and  _118
REMARK   53  A    between atoms: _122  and  _124
REMARK   54  A    between atoms: _124  and  _125
REMARK   55  A    between atoms: _124  and  _127
REMARK   56  A    between atoms: _127  and  _128
REMARK   57  A    between atoms: _128  and  _129
REMARK   58  A    between atoms: _131  and  _133
REMARK   59  A    between atoms: _133  and  _134
REMARK   60  A    between atoms: _133  and  _136
REMARK   61  A    between atoms: _136  and  _137
REMARK   62  A    between atoms: _140  and  _142
REMARK   63  A    between atoms: _142  and  _143
REMARK   64  A    between atoms: _145  and  _147
REMARK   65  A    between atoms: _147  and  _148
REMARK   66  A    between atoms: _150  and  _152
REMARK   67  A    between atoms: _152  and  _153
REMARK   68  A    between atoms: _152  and  _155
REMARK   69  A    between atoms: _155  and  _156
REMARK   70  A    between atoms: _159  and  _161
REMARK   71  A    between atoms: _161  and  _162
REMARK   72  A    between atoms: _164  and  _166
REMARK   73  A    between atoms: _166  and  _167
REMARK   74  A    between atoms: _169  and  _171
REMARK   75  A    between atoms: _171  and  _172
REMARK   76  A    between atoms: _171  and  _174
REMARK   77  A    between atoms: _174  and  _175
REMARK   78  A    between atoms: _181  and  _183
REMARK   79  A    between atoms: _183  and  _184
REMARK   80  A    between atoms: _183  and  _186
REMARK   81  A    between atoms: _186  and  _187
REMARK   82  A    between atoms: _190  and  _192
REMARK   83  A    between atoms: _192  and  _193
REMARK   84  A    between atoms: _192  and  _195
REMARK   85  A    between atoms: _198  and  _200
REMARK   86  A    between atoms: _200  and  _201
REMARK   87  A    between atoms: _200  and  _203
REMARK   88  A    between atoms: _203  and  _204
REMARK   89  A    between atoms: _208  and  _209
REMARK   90  A    between atoms: _214  and  _216
REMARK   91  A    between atoms: _216  and  _217
REMARK   92  A    between atoms: _216  and  _219
REMARK   93  A    between atoms: _219  and  _220
REMARK   94  A    between atoms: _224  and  _225
REMARK   95  A    between atoms: _230  and  _232
REMARK   96  A    between atoms: _232  and  _233
REMARK   97  A    between atoms: _232  and  _235
REMARK   98  A    between atoms: _238  and  _240
REMARK   99  A    between atoms: _240  and  _241
REMARK  100  A    between atoms: _240  and  _243
REMARK  101  A    between atoms: _243  and  _244
REMARK  102  A    between atoms: _249  and  _251
REMARK  103  A    between atoms: _251  and  _252
REMARK  104  A    between atoms: _251  and  _254
REMARK  105  A    between atoms: _254  and  _255
REMARK  106  A    between atoms: _258  and  _260
REMARK  107  A    between atoms: _260  and  _261
REMARK  108  A    between atoms: _260  and  _263
REMARK  109  A    between atoms: _263  and  _264
REMARK  110  A    between atoms: _267  and  _269
REMARK  111  A    between atoms: _269  and  _270
REMARK  112  A    between atoms: _272  and  _274
REMARK  113  A    between atoms: _274  and  _275
REMARK  114  A    between atoms: _274  and  _277
REMARK  115  A    between atoms: _277  and  _278
REMARK  116  A    between atoms: _278  and  _279
REMARK  117  A    between atoms: _279  and  _280
REMARK  118  A    between atoms: _289  and  _291
REMARK  119  A    between atoms: _291  and  _292
REMARK  120  A    between atoms: _291  and  _294
REMARK  121  A    between atoms: _294  and  _295
REMARK  122  A    between atoms: _300  and  _302
REMARK  123  A    between atoms: _302  and  _303
REMARK  124  A    between atoms: _302  and  _305
REMARK  125  A    between atoms: _305  and  _306
REMARK  126  A    between atoms: _306  and  _307
REMARK  127  A    between atoms: _307  and  _308
REMARK  128  A    between atoms: _317  and  _319
REMARK  129  A    between atoms: _319  and  _320
REMARK  130  A    between atoms: _319  and  _322
REMARK  131  A    between atoms: _322  and  _323
REMARK  132  A    between atoms: _326  and  _328
REMARK  133  A    between atoms: _328  and  _329
REMARK  134  A    between atoms: _328  and  _331
REMARK  135  A    between atoms: _331  and  _332
REMARK  136  A    between atoms: _335  and  _337
REMARK  137  A    between atoms: _337  and  _338
REMARK  138  A    between atoms: _337  and  _340
REMARK  139  A    between atoms: _340  and  _341
REMARK  140  A    between atoms: _344  and  _346
REMARK  141  A    between atoms: _346  and  _347
REMARK  142  A    between atoms: _346  and  _349
REMARK  143  A    between atoms: _349  and  _350
REMARK  144  A    between atoms: _353  and  _355
REMARK  145  A    between atoms: _355  and  _356
REMARK  146  A    between atoms: _355  and  _358
REMARK  147  A    between atoms: _358  and  _359
REMARK  148  A    between atoms: _362  and  _364
REMARK  149  A    between atoms: _364  and  _365
REMARK  150  A    between atoms: _367  and  _369
REMARK  151  A    between atoms: _369  and  _370
REMARK  152  A    between atoms: _373  and  _375
REMARK  153  A    between atoms: _375  and  _376
REMARK  154  A    between atoms: _375  and  _378
REMARK  155  A    between atoms: _378  and  _379
REMARK  156  A    between atoms: _382  and  _384
REMARK  157  A    between atoms: _384  and  _385
REMARK  158  A    between atoms: _384  and  _387
REMARK  159  A    between atoms: _387  and  _388
REMARK  160  A    between atoms: _391  and  _393
REMARK  161  A    between atoms: _393  and  _394
REMARK  162  A    between atoms: _393  and  _396
REMARK  163  A    between atoms: _396  and  _397
REMARK  164  A    between atoms: _400  and  _402
REMARK  165  A    between atoms: _402  and  _403
REMARK  166  A    between atoms: _402  and  _405
REMARK  167  A    between atoms: _408  and  _410
REMARK  168  A    between atoms: _410  and  _411
REMARK  169  A    between atoms: _410  and  _413
REMARK  170  A    between atoms: _413  and  _414
REMARK  171  A    between atoms: _414  and  _415
REMARK  172  A    between atoms: _415  and  _416
REMARK  173  A    between atoms: _416  and  _417
REMARK  174  A    between atoms: _421  and  _423
REMARK  175  A    between atoms: _423  and  _424
REMARK  176  A    between atoms: _423  and  _426
REMARK  177  A    between atoms: _426  and  _427
REMARK  178  A    between atoms: _427  and  _428
REMARK  179  A    between atoms: _430  and  _432
REMARK  180  A    between atoms: _432  and  _433
REMARK  181  A    between atoms: _432  and  _435
REMARK  182  A    between atoms: _435  and  _436
REMARK  183  A    between atoms: _439  and  _441
REMARK  184  A    between atoms: _441  and  _442
REMARK  185  A    between atoms: _444  and  _446
REMARK  186  A    between atoms: _446  and  _447
REMARK  187  A    between atoms: _449  and  _451
REMARK  188  A    between atoms: _451  and  _452
REMARK  189  A    between atoms: _451  and  _454
REMARK  190  A    between atoms: _454  and  _455
REMARK  191  A    between atoms: _458  and  _460
REMARK  192  A    between atoms: _460  and  _461
REMARK  193  A    between atoms: _463  and  _465
REMARK  194  A    between atoms: _465  and  _466
REMARK  195  A    between atoms: _468  and  _470
REMARK  196  A    between atoms: _470  and  _471
REMARK  197  A    between atoms: _470  and  _473
REMARK  198  A    between atoms: _473  and  _474
REMARK  199  A    between atoms: _480  and  _482
REMARK  200  A    between atoms: _482  and  _483
REMARK  201  A    between atoms: _482  and  _485
REMARK  202  A    between atoms: _485  and  _486
REMARK  203  A    between atoms: _489  and  _491
REMARK  204  A    between atoms: _491  and  _492
REMARK  205  A    between atoms: _491  and  _494
REMARK  206  A    between atoms: _497  and  _499
REMARK  207  A    between atoms: _499  and  _500
REMARK  208  A    between atoms: _499  and  _502
REMARK  209  A    between atoms: _502  and  _503
REMARK  210  A    between atoms: _506  and  _508
REMARK  211  A    between atoms: _508  and  _509
REMARK  212  A    between atoms: _508  and  _511
REMARK  213  A    between atoms: _511  and  _512
REMARK  214  A    between atoms: _516  and  _517
REMARK  215  A    between atoms: _522  and  _524
REMARK  216  A    between atoms: _524  and  _525
REMARK  217  A    between atoms: _524  and  _527
REMARK  218  A    between atoms: _530  and  _532
REMARK  219  A    between atoms: _532  and  _533
REMARK  220  A    between atoms: _532  and  _535
REMARK  221  A    between atoms: _535  and  _536
REMARK  222  A    between atoms: _541  and  _543
REMARK  223  A    between atoms: _543  and  _544
REMARK  224  A    between atoms: _543  and  _546
REMARK  225  A    between atoms: _546  and  _547
REMARK  226  A    between atoms: _550  and  _552
REMARK  227  A    between atoms: _552  and  _553
REMARK  228  A    between atoms: _552  and  _555
REMARK  229  A    between atoms: _555  and  _556
REMARK  230  A    between atoms: _559  and  _561
REMARK  231  A    between atoms: _561  and  _562
REMARK  232  A    between atoms: _564  and  _566
REMARK  233  A    between atoms: _566  and  _567
REMARK  234  A    between atoms: _566  and  _569
REMARK  235  A    between atoms: _569  and  _570
REMARK  236  A    between atoms: _570  and  _571
REMARK  237  A    between atoms: _571  and  _572
REMARK  238  A    between atoms: _581  and  _583
REMARK  239  A    between atoms: _583  and  _584
REMARK  240  A    between atoms: _583  and  _586
REMARK  241  A    between atoms: _586  and  _587
REMARK                            x       y       z     vdW  Elec       q    Type
REMARK                         _______ _______ _______ _____ _____    ______ ____
ROOT
ATOM      1  O   HOH     1      20.419 -28.864 -19.848  0.00  0.00    +0.000 OA
ENDROOT
TORSDOF 0
REMARK  Name = ../refined-set-2016/2pk6/2pk6_pocket.pdb
REMARK  241 active torsions:
REMARK  status: ('A' for Active; 'I' for Inactive)
REMARK    1  A    between atoms: _1  and  _3
REMARK    2  A    between atoms: _3  and  _4
REMARK    3  A    between atoms: _3  and  _6
REMARK    4  A    between atoms: _6  and  _7
REMARK    5  A    between atoms: _7  and  _8
REMARK    6  A    between atoms: _8  and  _9
REMARK    7  A    between atoms: _18  and  _20
REMARK    8  A    between atoms: _20  and  _21
REMARK    9  A    between atoms: _20  and  _23
REMARK   10  A    between atoms: _23  and  _24
REMARK   11  A    between atoms: _27  and  _29
REMARK   12  A    between atoms: _29  and  _30
REMARK   13  A    between atoms: _29  and  _32
REMARK   14  A    between atoms: _32  and  _33
REMARK   15  A    between atoms: _36  and  _38
REMARK   16  A    between atoms: _38  and  _39
REMARK   17  A    between atoms: _38  and  _41
REMARK   18  A    between atoms: _41  and  _42
REMARK   19  A    between atoms: _45  and  _47
REMARK   20  A    between atoms: _47  and  _48
REMARK   21  A    between atoms: _47  and  _50
REMARK   22  A    between atoms: _50  and  _51
REMARK   23  A    between atoms: _54  and  _56
REMARK   24  A    between atoms: _56  and  _57
REMARK   25  A    between atoms: _59  and  _61
REMARK   26  A    between atoms: _61  and  _62
REMARK   27  A    between atoms: _65  and  _67
REMARK   28  A    between atoms: _67  and  _68
REMARK   29  A    between atoms: _67  and  _70
REMARK   30  A    between atoms: _70  and  _71
REMARK   31  A    between atoms: _74  and  _76
REMARK   32  A    between atoms: _76  and  _77
REMARK   33  A    between atoms: _76  and  _79
REMARK   34  A    between atoms: _79  and  _80
REMARK   35  A    between atoms: _83  and  _85
REMARK   36  A    between atoms: _85  and  _86
REMARK   37  A    between atoms: _85  and  _88
REMARK   38  A    between atoms: _88  and  _89
REMARK   39  A    between atoms: _92  and  _94
REMARK   40  A    between atoms: _94  and  _95
REMARK   41  A    between atoms: _94  and  _97
REMARK   42  A    between atoms: _100  and  _102
REMARK   43  A    between atoms: _102  and  _103
REMARK   44  A    between atoms: _102  and  _105
REMARK   45  A    between atoms: _105  and  _106
REMARK   46  A    between atoms: _109  and  _111
REMARK   47  A    between atoms: _111  and  _112
REMARK   48  A    between atoms: _111  and  _114
REMARK   49  A    between atoms: _114  and  _115
REMARK   50  A    between atoms: _115  and  _116
REMARK   51  A    between atoms: _116  and  _117
REMARK   52  A    between atoms: _117  and  _118
REMARK   53  A    between atoms: _122  and  _124
REMARK   54  A    between atoms: _124  and  _125
REMARK   55  A    between atoms: _124  and  _127
REMARK   56  A    between atoms: _127  and  _128
REMARK   57  A    between atoms: _128  and  _129
REMARK   58  A    between atoms: _131  and  _133
REMARK   59  A    between atoms: _133  and  _134
REMARK   60  A    between atoms: _133  and  _136
REMARK   61  A    between atoms: _136  and  _137
REMARK   62  A    between atoms: _140  and  _142
REMARK   63  A    between atoms: _142  and  _143
REMARK   64  A    between atoms: _145  and  _147
REMARK   65  A    between atoms: _147  and  _148
REMARK   66  A    between atoms: _150  and  _152
REMARK   67  A    between atoms: _152  and  _153
REMARK   68  A    between atoms: _152  and  _155
REMARK   69  A    between atoms: _155  and  _156
REMARK   70  A    between atoms: _159  and  _161
REMARK   71  A    between atoms: _161  and  _162
REMARK   72  A    between atoms: _164  and  _166
REMARK   73  A    between atoms: _166  and  _167
REMARK   74  A    between atoms: _169  and  _171
REMARK   75  A    between atoms: _171  and  _172
REMARK   76  A    between atoms: _171  and  _174
REMARK   77  A    between atoms: _174  and  _175
REMARK   78  A    between atoms: _181  and  _183
REMARK   79  A    between atoms: _183  and  _184
REMARK   80  A    between atoms: _183  and  _186
REMARK   81  A    between atoms: _186  and  _187
REMARK   82  A    between atoms: _190  and  _192
REMARK   83  A    between atoms: _192  and  _193
REMARK   84  A    between atoms: _192  and  _195
REMARK   85  A    between atoms: _198  and  _200
REMARK   86  A    between atoms: _200  and  _201
REMARK   87  A    between atoms: _200  and  _203
REMARK   88  A    between atoms: _203  and  _204
REMARK   89  A    between atoms: _208  and  _209
REMARK   90  A    between atoms: _214  and  _216
REMARK   91  A    between atoms: _216  and  _217
REMARK   92  A    between atoms: _216  and  _219
REMARK   93  A    between atoms: _219  and  _220
REMARK   94  A    between atoms: _224  and  _225
REMARK   95  A    between atoms: _230  and  _232
REMARK   96  A    between atoms: _232  and  _233
REMARK   97  A    between atoms: _232  and  _235
REMARK   98  A    between atoms: _238  and  _240
REMARK   99  A    between atoms: _240  and  _241
REMARK  100  A    between atoms: _240  and  _243
REMARK  101  A    between atoms: _243  and  _244
REMARK  102  A    between atoms: _249  and  _251
REMARK  103  A    between atoms: _251  and  _252
REMARK  104  A    between atoms: _251  and  _254
REMARK  105  A    between atoms: _254  and  _255
REMARK  106  A    between atoms: _258  and  _260
REMARK  107  A    between atoms: _260  and  _261
REMARK  108  A    between atoms: _260  and  _263
REMARK  109  A    between atoms: _263  and  _264
REMARK  110  A    between atoms: _267  and  _269
REMARK  111  A    between atoms: _269  and  _270
REMARK  112  A    between atoms: _272  and  _274
REMARK  113  A    between atoms: _274  and  _275
REMARK  114  A    between atoms: _274  and  _277
REMARK  115  A    between atoms: _277  and  _278
REMARK  116  A    between atoms: _278  and  _279
REMARK  117  A    between atoms: _279  and  _280
REMARK  118  A    between atoms: _289  and  _291
REMARK  119  A    between atoms: _291  and  _292
REMARK  120  A    between atoms: _291  and  _294
REMARK  121  A    between atoms: _294  and  _295
REMARK  122  A    between atoms: _300  and  _302
REMARK  123  A    between atoms: _302  and  _303
REMARK  124  A    between atoms: _302  and  _305
REMARK  125  A    between atoms: _305  and  _306
REMARK  126  A    between atoms: _306  and  _307
REMARK  127  A    between atoms: _307  and  _308
REMARK  128  A    between atoms: _317  and  _319
REMARK  129  A    between atoms: _319  and  _320
REMARK  130  A    between atoms: _319  and  _322
REMARK  131  A    between atoms: _322  and  _323
REMARK  132  A    between atoms: _326  and  _328
REMARK  133  A    between atoms: _328  and  _329
REMARK  134  A    between atoms: _328  and  _331
REMARK  135  A    between atoms: _331  and  _332
REMARK  136  A    between atoms: _335  and  _337
REMARK  137  A    between atoms: _337  and  _338
REMARK  138  A    between atoms: _337  and  _340
REMARK  139  A    between atoms: _340  and  _341
REMARK  140  A    between atoms: _344  and  _346
REMARK  141  A    between atoms: _346  and  _347
REMARK  142  A    between atoms: _346  and  _349
REMARK  143  A    between atoms: _349  and  _350
REMARK  144  A    between atoms: _353  and  _355
REMARK  145  A    between atoms: _355  and  _356
REMARK  146  A    between atoms: _355  and  _358
REMARK  147  A    between atoms: _358  and  _359
REMARK  148  A    between atoms: _362  and  _364
REMARK  149  A    between atoms: _364  and  _365
REMARK  150  A    between atoms: _367  and  _369
REMARK  151  A    between atoms: _369  and  _370
REMARK  152  A    between atoms: _373  and  _375
REMARK  153  A    between atoms: _375  and  _376
REMARK  154  A    between atoms: _375  and  _378
REMARK  155  A    between atoms: _378  and  _379
REMARK  156  A    between atoms: _382  and  _384
REMARK  157  A    between atoms: _384  and  _385
REMARK  158  A    between atoms: _384  and  _387
REMARK  159  A    between atoms: _387  and  _388
REMARK  160  A    between atoms: _391  and  _393
REMARK  161  A    between atoms: _393  and  _394
REMARK  162  A    between atoms: _393  and  _396
REMARK  163  A    between atoms: _396  and  _397
REMARK  164  A    between atoms: _400  and  _402
REMARK  165  A    between atoms: _402  and  _403
REMARK  166  A    between atoms: _402  and  _405
REMARK  167  A    between atoms: _408  and  _410
REMARK  168  A    between atoms: _410  and  _411
REMARK  169  A    between atoms: _410  and  _413
REMARK  170  A    between atoms: _413  and  _414
REMARK  171  A    between atoms: _414  and  _415
REMARK  172  A    between atoms: _415  and  _416
REMARK  173  A    between atoms: _416  and  _417
REMARK  174  A    between atoms: _421  and  _423
REMARK  175  A    between atoms: _423  and  _424
REMARK  176  A    between atoms: _423  and  _426
REMARK  177  A    between atoms: _426  and  _427
REMARK  178  A    between atoms: _427  and  _428
REMARK  179  A    between atoms: _430  and  _432
REMARK  180  A    between atoms: _432  and  _433
REMARK  181  A    between atoms: _432  and  _435
REMARK  182  A    between atoms: _435  and  _436
REMARK  183  A    between atoms: _439  and  _441
REMARK  184  A    between atoms: _441  and  _442
REMARK  185  A    between atoms: _444  and  _446
REMARK  186  A    between atoms: _446  and  _447
REMARK  187  A    between atoms: _449  and  _451
REMARK  188  A    between atoms: _451  and  _452
REMARK  189  A    between atoms: _451  and  _454
REMARK  190  A    between atoms: _454  and  _455
REMARK  191  A    between atoms: _458  and  _460
REMARK  192  A    between atoms: _460  and  _461
REMARK  193  A    between atoms: _463  and  _465
REMARK  194  A    between atoms: _465  and  _466
REMARK  195  A    between atoms: _468  and  _470
REMARK  196  A    between atoms: _470  and  _471
REMARK  197  A    between atoms: _470  and  _473
REMARK  198  A    between atoms: _473  and  _474
REMARK  199  A    between atoms: _480  and  _482
REMARK  200  A    between atoms: _482  and  _483
REMARK  201  A    between atoms: _482  and  _485
REMARK  202  A    between atoms: _485  and  _486
REMARK  203  A    between atoms: _489  and  _491
REMARK  204  A    between atoms: _491  and  _492
REMARK  205  A    between atoms: _491  and  _494
REMARK  206  A    between atoms: _497  and  _499
REMARK  207  A    between atoms: _499  and  _500
REMARK  208  A    between atoms: _499  and  _502
REMARK  209  A    between atoms: _502  and  _503
REMARK  210  A    between atoms: _506  and  _508
REMARK  211  A    between atoms: _508  and  _509
REMARK  212  A    between atoms: _508  and  _511
REMARK  213  A    between atoms: _511  and  _512
REMARK  214  A    between atoms: _516  and  _517
REMARK  215  A    between atoms: _522  and  _524
REMARK  216  A    between atoms: _524  and  _525
REMARK  217  A    between atoms: _524  and  _527
REMARK  218  A    between atoms: _530  and  _532
REMARK  219  A    between atoms: _532  and  _533
REMARK  220  A    between atoms: _532  and  _535
REMARK  221  A    between atoms: _535  and  _536
REMARK  222  A    between atoms: _541  and  _543
REMARK  223  A    between atoms: _543  and  _544
REMARK  224  A    between atoms: _543  and  _546
REMARK  225  A    between atoms: _546  and  _547
REMARK  226  A    between atoms: _550  and  _552
REMARK  227  A    between atoms: _552  and  _553
REMARK  228  A    between atoms: _552  and  _555
REMARK  229  A    between atoms: _555  and  _556
REMARK  230  A    between atoms: _559  and  _561
REMARK  231  A    between atoms: _561  and  _562
REMARK  232  A    between atoms: _564  and  _566
REMARK  233  A    between atoms: _566  and  _567
REMARK  234  A    between atoms: _566  and  _569
REMARK  235  A    between atoms: _569  and  _570
REMARK  236  A    between atoms: _570  and  _571
REMARK  237  A    between atoms: _571  and  _572
REMARK  238  A    between atoms: _581  and  _583
REMARK  239  A    between atoms: _583  and  _584
REMARK  240  A    between atoms: _583  and  _586
REMARK  241  A    between atoms: _586  and  _587
REMARK                            x       y       z     vdW  Elec       q    Type
REMARK                         _______ _______ _______ _____ _____    ______ ____
ROOT
ATOM      1  O   HOH     1       2.860 -20.399 -23.949  0.00  0.00    +0.000 OA
ENDROOT
TORSDOF 0
REMARK  Name = ../refined-set-2016/2pk6/2pk6_pocket.pdb
REMARK  241 active torsions:
REMARK  status: ('A' for Active; 'I' for Inactive)
REMARK    1  A    between atoms: _1  and  _3
REMARK    2  A    between atoms: _3  and  _4
REMARK    3  A    between atoms: _3  and  _6
REMARK    4  A    between atoms: _6  and  _7
REMARK    5  A    between atoms: _7  and  _8
REMARK    6  A    between atoms: _8  and  _9
REMARK    7  A    between atoms: _18  and  _20
REMARK    8  A    between atoms: _20  and  _21
REMARK    9  A    between atoms: _20  and  _23
REMARK   10  A    between atoms: _23  and  _24
REMARK   11  A    between atoms: _27  and  _29
REMARK   12  A    between atoms: _29  and  _30
REMARK   13  A    between atoms: _29  and  _32
REMARK   14  A    between atoms: _32  and  _33
REMARK   15  A    between atoms: _36  and  _38
REMARK   16  A    between atoms: _38  and  _39
REMARK   17  A    between atoms: _38  and  _41
REMARK   18  A    between atoms: _41  and  _42
REMARK   19  A    between atoms: _45  and  _47
REMARK   20  A    between atoms: _47  and  _48
REMARK   21  A    between atoms: _47  and  _50
REMARK   22  A    between atoms: _50  and  _51
REMARK   23  A    between atoms: _54  and  _56
REMARK   24  A    between atoms: _56  and  _57
REMARK   25  A    between atoms: _59  and  _61
REMARK   26  A    between atoms: _61  and  _62
REMARK   27  A    between atoms: _65  and  _67
REMARK   28  A    between atoms: _67  and  _68
REMARK   29  A    between atoms: _67  and  _70
REMARK   30  A    between atoms: _70  and  _71
REMARK   31  A    between atoms: _74  and  _76
REMARK   32  A    between atoms: _76  and  _77
REMARK   33  A    between atoms: _76  and  _79
REMARK   34  A    between atoms: _79  and  _80
REMARK   35  A    between atoms: _83  and  _85
REMARK   36  A    between atoms: _85  and  _86
REMARK   37  A    between atoms: _85  and  _88
REMARK   38  A    between atoms: _88  and  _89
REMARK   39  A    between atoms: _92  and  _94
REMARK   40  A    between atoms: _94  and  _95
REMARK   41  A    between atoms: _94  and  _97
REMARK   42  A    between atoms: _100  and  _102
REMARK   43  A    between atoms: _102  and  _103
REMARK   44  A    between atoms: _102  and  _105
REMARK   45  A    between atoms: _105  and  _106
REMARK   46  A    between atoms: _109  and  _111
REMARK   47  A    between atoms: _111  and  _112
REMARK   48  A    between atoms: _111  and  _114
REMARK   49  A    between atoms: _114  and  _115
REMARK   50  A    between atoms: _115  and  _116
REMARK   51  A    between atoms: _116  and  _117
REMARK   52  A    between atoms: _117  and  _118
REMARK   53  A    between atoms: _122  and  _124
REMARK   54  A    between atoms: _124  and  _125
REMARK   55  A    between atoms: _124  and  _127
REMARK   56  A    between atoms: _127  and  _128
REMARK   57  A    between atoms: _128  and  _129
REMARK   58  A    between atoms: _131  and  _133
REMARK   59  A    between atoms: _133  and  _134
REMARK   60  A    between atoms: _133  and  _136
REMARK   61  A    between atoms: _136  and  _137
REMARK   62  A    between atoms: _140  and  _142
REMARK   63  A    between atoms: _142  and  _143
REMARK   64  A    between atoms: _145  and  _147
REMARK   65  A    between atoms: _147  and  _148
REMARK   66  A    between atoms: _150  and  _152
REMARK   67  A    between atoms: _152  and  _153
REMARK   68  A    between atoms: _152  and  _155
REMARK   69  A    between atoms: _155  and  _156
REMARK   70  A    between atoms: _159  and  _161
REMARK   71  A    between atoms: _161  and  _162
REMARK   72  A    between atoms: _164  and  _166
REMARK   73  A    between atoms: _166  and  _167
REMARK   74  A    between atoms: _169  and  _171
REMARK   75  A    between atoms: _171  and  _172
REMARK   76  A    between atoms: _171  and  _174
REMARK   77  A    between atoms: _174  and  _175
REMARK   78  A    between atoms: _181  and  _183
REMARK   79  A    between atoms: _183  and  _184
REMARK   80  A    between atoms: _183  and  _186
REMARK   81  A    between atoms: _186  and  _187
REMARK   82  A    between atoms: _190  and  _192
REMARK   83  A    between atoms: _192  and  _193
REMARK   84  A    between atoms: _192  and  _195
REMARK   85  A    between atoms: _198  and  _200
REMARK   86  A    between atoms: _200  and  _201
REMARK   87  A    between atoms: _200  and  _203
REMARK   88  A    between atoms: _203  and  _204
REMARK   89  A    between atoms: _208  and  _209
REMARK   90  A    between atoms: _214  and  _216
REMARK   91  A    between atoms: _216  and  _217
REMARK   92  A    between atoms: _216  and  _219
REMARK   93  A    between atoms: _219  and  _220
REMARK   94  A    between atoms: _224  and  _225
REMARK   95  A    between atoms: _230  and  _232
REMARK   96  A    between atoms: _232  and  _233
REMARK   97  A    between atoms: _232  and  _235
REMARK   98  A    between atoms: _238  and  _240
REMARK   99  A    between atoms: _240  and  _241
REMARK  100  A    between atoms: _240  and  _243
REMARK  101  A    between atoms: _243  and  _244
REMARK  102  A    between atoms: _249  and  _251
REMARK  103  A    between atoms: _251  and  _252
REMARK  104  A    between atoms: _251  and  _254
REMARK  105  A    between atoms: _254  and  _255
REMARK  106  A    between atoms: _258  and  _260
REMARK  107  A    between atoms: _260  and  _261
REMARK  108  A    between atoms: _260  and  _263
REMARK  109  A    between atoms: _263  and  _264
REMARK  110  A    between atoms: _267  and  _269
REMARK  111  A    between atoms: _269  and  _270
REMARK  112  A    between atoms: _272  and  _274
REMARK  113  A    between atoms: _274  and  _275
REMARK  114  A    between atoms: _274  and  _277
REMARK  115  A    between atoms: _277  and  _278
REMARK  116  A    between atoms: _278  and  _279
REMARK  117  A    between atoms: _279  and  _280
REMARK  118  A    between atoms: _289  and  _291
REMARK  119  A    between atoms: _291  and  _292
REMARK  120  A    between atoms: _291  and  _294
REMARK  121  A    between atoms: _294  and  _295
REMARK  122  A    between atoms: _300  and  _302
REMARK  123  A    between atoms: _302  and  _303
REMARK  124  A    between atoms: _302  and  _305
REMARK  125  A    between atoms: _305  and  _306
REMARK  126  A    between atoms: _306  and  _307
REMARK  127  A    between atoms: _307  and  _308
REMARK  128  A    between atoms: _317  and  _319
REMARK  129  A    between atoms: _319  and  _320
REMARK  130  A    between atoms: _319  and  _322
REMARK  131  A    between atoms: _322  and  _323
REMARK  132  A    between atoms: _326  and  _328
REMARK  133  A    between atoms: _328  and  _329
REMARK  134  A    between atoms: _328  and  _331
REMARK  135  A    between atoms: _331  and  _332
REMARK  136  A    between atoms: _335  and  _337
REMARK  137  A    between atoms: _337  and  _338
REMARK  138  A    between atoms: _337  and  _340
REMARK  139  A    between atoms: _340  and  _341
REMARK  140  A    between atoms: _344  and  _346
REMARK  141  A    between atoms: _346  and  _347
REMARK  142  A    between atoms: _346  and  _349
REMARK  143  A    between atoms: _349  and  _350
REMARK  144  A    between atoms: _353  and  _355
REMARK  145  A    between atoms: _355  and  _356
REMARK  146  A    between atoms: _355  and  _358
REMARK  147  A    between atoms: _358  and  _359
REMARK  148  A    between atoms: _362  and  _364
REMARK  149  A    between atoms: _364  and  _365
REMARK  150  A    between atoms: _367  and  _369
REMARK  151  A    between atoms: _369  and  _370
REMARK  152  A    between atoms: _373  and  _375
REMARK  153  A    between atoms: _375  and  _376
REMARK  154  A    between atoms: _375  and  _378
REMARK  155  A    between atoms: _378  and  _379
REMARK  156  A    between atoms: _382  and  _384
REMARK  157  A    between atoms: _384  and  _385
REMARK  158  A    between atoms: _384  and  _387
REMARK  159  A    between atoms: _387  and  _388
REMARK  160  A    between atoms: _391  and  _393
REMARK  161  A    between atoms: _393  and  _394
REMARK  162  A    between atoms: _393  and  _396
REMARK  163  A    between atoms: _396  and  _397
REMARK  164  A    between atoms: _400  and  _402
REMARK  165  A    between atoms: _402  and  _403
REMARK  166  A    between atoms: _402  and  _405
REMARK  167  A    between atoms: _408  and  _410
REMARK  168  A    between atoms: _410  and  _411
REMARK  169  A    between atoms: _410  and  _413
REMARK  170  A    between atoms: _413  and  _414
REMARK  171  A    between atoms: _414  and  _415
REMARK  172  A    between atoms: _415  and  _416
REMARK  173  A    between atoms: _416  and  _417
REMARK  174  A    between atoms: _421  and  _423
REMARK  175  A    between atoms: _423  and  _424
REMARK  176  A    between atoms: _423  and  _426
REMARK  177  A    between atoms: _426  and  _427
REMARK  178  A    between atoms: _427  and  _428
REMARK  179  A    between atoms: _430  and  _432
REMARK  180  A    between atoms: _432  and  _433
REMARK  181  A    between atoms: _432  and  _435
REMARK  182  A    between atoms: _435  and  _436
REMARK  183  A    between atoms: _439  and  _441
REMARK  184  A    between atoms: _441  and  _442
REMARK  185  A    between atoms: _444  and  _446
REMARK  186  A    between atoms: _446  and  _447
REMARK  187  A    between atoms: _449  and  _451
REMARK  188  A    between atoms: _451  and  _452
REMARK  189  A    between atoms: _451  and  _454
REMARK  190  A    between atoms: _454  and  _455
REMARK  191  A    between atoms: _458  and  _460
REMARK  192  A    between atoms: _460  and  _461
REMARK  193  A    between atoms: _463  and  _465
REMARK  194  A    between atoms: _465  and  _466
REMARK  195  A    between atoms: _468  and  _470
REMARK  196  A    between atoms: _470  and  _471
REMARK  197  A    between atoms: _470  and  _473
REMARK  198  A    between atoms: _473  and  _474
REMARK  199  A    between atoms: _480  and  _482
REMARK  200  A    between atoms: _482  and  _483
REMARK  201  A    between atoms: _482  and  _485
REMARK  202  A    between atoms: _485  and  _486
REMARK  203  A    between atoms: _489  and  _491
REMARK  204  A    between atoms: _491  and  _492
REMARK  205  A    between atoms: _491  and  _494
REMARK  206  A    between atoms: _497  and  _499
REMARK  207  A    between atoms: _499  and  _500
REMARK  208  A    between atoms: _499  and  _502
REMARK  209  A    between atoms: _502  and  _503
REMARK  210  A    between atoms: _506  and  _508
REMARK  211  A    between atoms: _508  and  _509
REMARK  212  A    between atoms: _508  and  _511
REMARK  213  A    between atoms: _511  and  _512
REMARK  214  A    between atoms: _516  and  _517
REMARK  215  A    between atoms: _522  and  _524
REMARK  216  A    between atoms: _524  and  _525
REMARK  217  A    between atoms: _524  and  _527
REMARK  218  A    between atoms: _530  and  _532
REMARK  219  A    between atoms: _532  and  _533
REMARK  220  A    between atoms: _532  and  _535
REMARK  221  A    between atoms: _535  and  _536
REMARK  222  A    between atoms: _541  and  _543
REMARK  223  A    between atoms: _543  and  _544
REMARK  224  A    between atoms: _543  and  _546
REMARK  225  A    between atoms: _546  and  _547
REMARK  226  A    between atoms: _550  and  _552
REMARK  227  A    between atoms: _552  and  _553
REMARK  228  A    between atoms: _552  and  _555
REMARK  229  A    between atoms: _555  and  _556
REMARK  230  A    between atoms: _559  and  _561
REMARK  231  A    between atoms: _561  and  _562
REMARK  232  A    between atoms: _564  and  _566
REMARK  233  A    between atoms: _566  and  _567
REMARK  234  A    between atoms: _566  and  _569
REMARK  235  A    between atoms: _569  and  _570
REMARK  236  A    between atoms: _570  and  _571
REMARK  237  A    between atoms: _571  and  _572
REMARK  238  A    between atoms: _581  and  _583
REMARK  239  A    between atoms: _583  and  _584
REMARK  240  A    between atoms: _583  and  _586
REMARK  241  A    between atoms: _586  and  _587
REMARK                            x       y       z     vdW  Elec       q    Type
REMARK                         _______ _______ _______ _____ _____    ______ ____
ROOT
ATOM      1  O   HOH     1      19.489 -28.436 -14.824  0.00  0.00    +0.000 OA
ENDROOT
TORSDOF 0
REMARK  Name = ../refined-set-2016/2pk6/2pk6_pocket.pdb
REMARK  241 active torsions:
REMARK  status: ('A' for Active; 'I' for Inactive)
REMARK    1  A    between atoms: _1  and  _3
REMARK    2  A    between atoms: _3  and  _4
REMARK    3  A    between atoms: _3  and  _6
REMARK    4  A    between atoms: _6  and  _7
REMARK    5  A    between atoms: _7  and  _8
REMARK    6  A    between atoms: _8  and  _9
REMARK    7  A    between atoms: _18  and  _20
REMARK    8  A    between atoms: _20  and  _21
REMARK    9  A    between atoms: _20  and  _23
REMARK   10  A    between atoms: _23  and  _24
REMARK   11  A    between atoms: _27  and  _29
REMARK   12  A    between atoms: _29  and  _30
REMARK   13  A    between atoms: _29  and  _32
REMARK   14  A    between atoms: _32  and  _33
REMARK   15  A    between atoms: _36  and  _38
REMARK   16  A    between atoms: _38  and  _39
REMARK   17  A    between atoms: _38  and  _41
REMARK   18  A    between atoms: _41  and  _42
REMARK   19  A    between atoms: _45  and  _47
REMARK   20  A    between atoms: _47  and  _48
REMARK   21  A    between atoms: _47  and  _50
REMARK   22  A    between atoms: _50  and  _51
REMARK   23  A    between atoms: _54  and  _56
REMARK   24  A    between atoms: _56  and  _57
REMARK   25  A    between atoms: _59  and  _61
REMARK   26  A    between atoms: _61  and  _62
REMARK   27  A    between atoms: _65  and  _67
REMARK   28  A    between atoms: _67  and  _68
REMARK   29  A    between atoms: _67  and  _70
REMARK   30  A    between atoms: _70  and  _71
REMARK   31  A    between atoms: _74  and  _76
REMARK   32  A    between atoms: _76  and  _77
REMARK   33  A    between atoms: _76  and  _79
REMARK   34  A    between atoms: _79  and  _80
REMARK   35  A    between atoms: _83  and  _85
REMARK   36  A    between atoms: _85  and  _86
REMARK   37  A    between atoms: _85  and  _88
REMARK   38  A    between atoms: _88  and  _89
REMARK   39  A    between atoms: _92  and  _94
REMARK   40  A    between atoms: _94  and  _95
REMARK   41  A    between atoms: _94  and  _97
REMARK   42  A    between atoms: _100  and  _102
REMARK   43  A    between atoms: _102  and  _103
REMARK   44  A    between atoms: _102  and  _105
REMARK   45  A    between atoms: _105  and  _106
REMARK   46  A    between atoms: _109  and  _111
REMARK   47  A    between atoms: _111  and  _112
REMARK   48  A    between atoms: _111  and  _114
REMARK   49  A    between atoms: _114  and  _115
REMARK   50  A    between atoms: _115  and  _116
REMARK   51  A    between atoms: _116  and  _117
REMARK   52  A    between atoms: _117  and  _118
REMARK   53  A    between atoms: _122  and  _124
REMARK   54  A    between atoms: _124  and  _125
REMARK   55  A    between atoms: _124  and  _127
REMARK   56  A    between atoms: _127  and  _128
REMARK   57  A    between atoms: _128  and  _129
REMARK   58  A    between atoms: _131  and  _133
REMARK   59  A    between atoms: _133  and  _134
REMARK   60  A    between atoms: _133  and  _136
REMARK   61  A    between atoms: _136  and  _137
REMARK   62  A    between atoms: _140  and  _142
REMARK   63  A    between atoms: _142  and  _143
REMARK   64  A    between atoms: _145  and  _147
REMARK   65  A    between atoms: _147  and  _148
REMARK   66  A    between atoms: _150  and  _152
REMARK   67  A    between atoms: _152  and  _153
REMARK   68  A    between atoms: _152  and  _155
REMARK   69  A    between atoms: _155  and  _156
REMARK   70  A    between atoms: _159  and  _161
REMARK   71  A    between atoms: _161  and  _162
REMARK   72  A    between atoms: _164  and  _166
REMARK   73  A    between atoms: _166  and  _167
REMARK   74  A    between atoms: _169  and  _171
REMARK   75  A    between atoms: _171  and  _172
REMARK   76  A    between atoms: _171  and  _174
REMARK   77  A    between atoms: _174  and  _175
REMARK   78  A    between atoms: _181  and  _183
REMARK   79  A    between atoms: _183  and  _184
REMARK   80  A    between atoms: _183  and  _186
REMARK   81  A    between atoms: _186  and  _187
REMARK   82  A    between atoms: _190  and  _192
REMARK   83  A    between atoms: _192  and  _193
REMARK   84  A    between atoms: _192  and  _195
REMARK   85  A    between atoms: _198  and  _200
REMARK   86  A    between atoms: _200  and  _201
REMARK   87  A    between atoms: _200  and  _203
REMARK   88  A    between atoms: _203  and  _204
REMARK   89  A    between atoms: _208  and  _209
REMARK   90  A    between atoms: _214  and  _216
REMARK   91  A    between atoms: _216  and  _217
REMARK   92  A    between atoms: _216  and  _219
REMARK   93  A    between atoms: _219  and  _220
REMARK   94  A    between atoms: _224  and  _225
REMARK   95  A    between atoms: _230  and  _232
REMARK   96  A    between atoms: _232  and  _233
REMARK   97  A    between atoms: _232  and  _235
REMARK   98  A    between atoms: _238  and  _240
REMARK   99  A    between atoms: _240  and  _241
REMARK  100  A    between atoms: _240  and  _243
REMARK  101  A    between atoms: _243  and  _244
REMARK  102  A    between atoms: _249  and  _251
REMARK  103  A    between atoms: _251  and  _252
REMARK  104  A    between atoms: _251  and  _254
REMARK  105  A    between atoms: _254  and  _255
REMARK  106  A    between atoms: _258  and  _260
REMARK  107  A    between atoms: _260  and  _261
REMARK  108  A    between atoms: _260  and  _263
REMARK  109  A    between atoms: _263  and  _264
REMARK  110  A    between atoms: _267  and  _269
REMARK  111  A    between atoms: _269  and  _270
REMARK  112  A    between atoms: _272  and  _274
REMARK  113  A    between atoms: _274  and  _275
REMARK  114  A    between atoms: _274  and  _277
REMARK  115  A    between atoms: _277  and  _278
REMARK  116  A    between atoms: _278  and  _279
REMARK  117  A    between atoms: _279  and  _280
REMARK  118  A    between atoms: _289  and  _291
REMARK  119  A    between atoms: _291  and  _292
REMARK  120  A    between atoms: _291  and  _294
REMARK  121  A    between atoms: _294  and  _295
REMARK  122  A    between atoms: _300  and  _302
REMARK  123  A    between atoms: _302  and  _303
REMARK  124  A    between atoms: _302  and  _305
REMARK  125  A    between atoms: _305  and  _306
REMARK  126  A    between atoms: _306  and  _307
REMARK  127  A    between atoms: _307  and  _308
REMARK  128  A    between atoms: _317  and  _319
REMARK  129  A    between atoms: _319  and  _320
REMARK  130  A    between atoms: _319  and  _322
REMARK  131  A    between atoms: _322  and  _323
REMARK  132  A    between atoms: _326  and  _328
REMARK  133  A    between atoms: _328  and  _329
REMARK  134  A    between atoms: _328  and  _331
REMARK  135  A    between atoms: _331  and  _332
REMARK  136  A    between atoms: _335  and  _337
REMARK  137  A    between atoms: _337  and  _338
REMARK  138  A    between atoms: _337  and  _340
REMARK  139  A    between atoms: _340  and  _341
REMARK  140  A    between atoms: _344  and  _346
REMARK  141  A    between atoms: _346  and  _347
REMARK  142  A    between atoms: _346  and  _349
REMARK  143  A    between atoms: _349  and  _350
REMARK  144  A    between atoms: _353  and  _355
REMARK  145  A    between atoms: _355  and  _356
REMARK  146  A    between atoms: _355  and  _358
REMARK  147  A    between atoms: _358  and  _359
REMARK  148  A    between atoms: _362  and  _364
REMARK  149  A    between atoms: _364  and  _365
REMARK  150  A    between atoms: _367  and  _369
REMARK  151  A    between atoms: _369  and  _370
REMARK  152  A    between atoms: _373  and  _375
REMARK  153  A    between atoms: _375  and  _376
REMARK  154  A    between atoms: _375  and  _378
REMARK  155  A    between atoms: _378  and  _379
REMARK  156  A    between atoms: _382  and  _384
REMARK  157  A    between atoms: _384  and  _385
REMARK  158  A    between atoms: _384  and  _387
REMARK  159  A    between atoms: _387  and  _388
REMARK  160  A    between atoms: _391  and  _393
REMARK  161  A    between atoms: _393  and  _394
REMARK  162  A    between atoms: _393  and  _396
REMARK  163  A    between atoms: _396  and  _397
REMARK  164  A    between atoms: _400  and  _402
REMARK  165  A    between atoms: _402  and  _403
REMARK  166  A    between atoms: _402  and  _405
REMARK  167  A    between atoms: _408  and  _410
REMARK  168  A    between atoms: _410  and  _411
REMARK  169  A    between atoms: _410  and  _413
REMARK  170  A    between atoms: _413  and  _414
REMARK  171  A    between atoms: _414  and  _415
REMARK  172  A    between atoms: _415  and  _416
REMARK  173  A    between atoms: _416  and  _417
REMARK  174  A    between atoms: _421  and  _423
REMARK  175  A    between atoms: _423  and  _424
REMARK  176  A    between atoms: _423  and  _426
REMARK  177  A    between atoms: _426  and  _427
REMARK  178  A    between atoms: _427  and  _428
REMARK  179  A    between atoms: _430  and  _432
REMARK  180  A    between atoms: _432  and  _433
REMARK  181  A    between atoms: _432  and  _435
REMARK  182  A    between atoms: _435  and  _436
REMARK  183  A    between atoms: _439  and  _441
REMARK  184  A    between atoms: _441  and  _442
REMARK  185  A    between atoms: _444  and  _446
REMARK  186  A    between atoms: _446  and  _447
REMARK  187  A    between atoms: _449  and  _451
REMARK  188  A    between atoms: _451  and  _452
REMARK  189  A    between atoms: _451  and  _454
REMARK  190  A    between atoms: _454  and  _455
REMARK  191  A    between atoms: _458  and  _460
REMARK  192  A    between atoms: _460  and  _461
REMARK  193  A    between atoms: _463  and  _465
REMARK  194  A    between atoms: _465  and  _466
REMARK  195  A    between atoms: _468  and  _470
REMARK  196  A    between atoms: _470  and  _471
REMARK  197  A    between atoms: _470  and  _473
REMARK  198  A    between atoms: _473  and  _474
REMARK  199  A    between atoms: _480  and  _482
REMARK  200  A    between atoms: _482  and  _483
REMARK  201  A    between atoms: _482  and  _485
REMARK  202  A    between atoms: _485  and  _486
REMARK  203  A    between atoms: _489  and  _491
REMARK  204  A    between atoms: _491  and  _492
REMARK  205  A    between atoms: _491  and  _494
REMARK  206  A    between atoms: _497  and  _499
REMARK  207  A    between atoms: _499  and  _500
REMARK  208  A    between atoms: _499  and  _502
REMARK  209  A    between atoms: _502  and  _503
REMARK  210  A    between atoms: _506  and  _508
REMARK  211  A    between atoms: _508  and  _509
REMARK  212  A    between atoms: _508  and  _511
REMARK  213  A    between atoms: _511  and  _512
REMARK  214  A    between atoms: _516  and  _517
REMARK  215  A    between atoms: _522  and  _524
REMARK  216  A    between atoms: _524  and  _525
REMARK  217  A    between atoms: _524  and  _527
REMARK  218  A    between atoms: _530  and  _532
REMARK  219  A    between atoms: _532  and  _533
REMARK  220  A    between atoms: _532  and  _535
REMARK  221  A    between atoms: _535  and  _536
REMARK  222  A    between atoms: _541  and  _543
REMARK  223  A    between atoms: _543  and  _544
REMARK  224  A    between atoms: _543  and  _546
REMARK  225  A    between atoms: _546  and  _547
REMARK  226  A    between atoms: _550  and  _552
REMARK  227  A    between atoms: _552  and  _553
REMARK  228  A    between atoms: _552  and  _555
REMARK  229  A    between atoms: _555  and  _556
REMARK  230  A    between atoms: _559  and  _561
REMARK  231  A    between atoms: _561  and  _562
REMARK  232  A    between atoms: _564  and  _566
REMARK  233  A    between atoms: _566  and  _567
REMARK  234  A    between atoms: _566  and  _569
REMARK  235  A    between atoms: _569  and  _570
REMARK  236  A    between atoms: _570  and  _571
REMARK  237  A    between atoms: _571  and  _572
REMARK  238  A    between atoms: _581  and  _583
REMARK  239  A    between atoms: _583  and  _584
REMARK  240  A    between atoms: _583  and  _586
REMARK  241  A    between atoms: _586  and  _587
REMARK                            x       y       z     vdW  Elec       q    Type
REMARK                         _______ _______ _______ _____ _____    ______ ____
ROOT
ATOM      1  O   HOH     1      10.656 -30.685  -9.669  0.00  0.00    +0.000 OA
ENDROOT
TORSDOF 0
REMARK  Name = ../refined-set-2016/2pk6/2pk6_pocket.pdb
REMARK  241 active torsions:
REMARK  status: ('A' for Active; 'I' for Inactive)
REMARK    1  A    between atoms: _1  and  _3
REMARK    2  A    between atoms: _3  and  _4
REMARK    3  A    between atoms: _3  and  _6
REMARK    4  A    between atoms: _6  and  _7
REMARK    5  A    between atoms: _7  and  _8
REMARK    6  A    between atoms: _8  and  _9
REMARK    7  A    between atoms: _18  and  _20
REMARK    8  A    between atoms: _20  and  _21
REMARK    9  A    between atoms: _20  and  _23
REMARK   10  A    between atoms: _23  and  _24
REMARK   11  A    between atoms: _27  and  _29
REMARK   12  A    between atoms: _29  and  _30
REMARK   13  A    between atoms: _29  and  _32
REMARK   14  A    between atoms: _32  and  _33
REMARK   15  A    between atoms: _36  and  _38
REMARK   16  A    between atoms: _38  and  _39
REMARK   17  A    between atoms: _38  and  _41
REMARK   18  A    between atoms: _41  and  _42
REMARK   19  A    between atoms: _45  and  _47
REMARK   20  A    between atoms: _47  and  _48
REMARK   21  A    between atoms: _47  and  _50
REMARK   22  A    between atoms: _50  and  _51
REMARK   23  A    between atoms: _54  and  _56
REMARK   24  A    between atoms: _56  and  _57
REMARK   25  A    between atoms: _59  and  _61
REMARK   26  A    between atoms: _61  and  _62
REMARK   27  A    between atoms: _65  and  _67
REMARK   28  A    between atoms: _67  and  _68
REMARK   29  A    between atoms: _67  and  _70
REMARK   30  A    between atoms: _70  and  _71
REMARK   31  A    between atoms: _74  and  _76
REMARK   32  A    between atoms: _76  and  _77
REMARK   33  A    between atoms: _76  and  _79
REMARK   34  A    between atoms: _79  and  _80
REMARK   35  A    between atoms: _83  and  _85
REMARK   36  A    between atoms: _85  and  _86
REMARK   37  A    between atoms: _85  and  _88
REMARK   38  A    between atoms: _88  and  _89
REMARK   39  A    between atoms: _92  and  _94
REMARK   40  A    between atoms: _94  and  _95
REMARK   41  A    between atoms: _94  and  _97
REMARK   42  A    between atoms: _100  and  _102
REMARK   43  A    between atoms: _102  and  _103
REMARK   44  A    between atoms: _102  and  _105
REMARK   45  A    between atoms: _105  and  _106
REMARK   46  A    between atoms: _109  and  _111
REMARK   47  A    between atoms: _111  and  _112
REMARK   48  A    between atoms: _111  and  _114
REMARK   49  A    between atoms: _114  and  _115
REMARK   50  A    between atoms: _115  and  _116
REMARK   51  A    between atoms: _116  and  _117
REMARK   52  A    between atoms: _117  and  _118
REMARK   53  A    between atoms: _122  and  _124
REMARK   54  A    between atoms: _124  and  _125
REMARK   55  A    between atoms: _124  and  _127
REMARK   56  A    between atoms: _127  and  _128
REMARK   57  A    between atoms: _128  and  _129
REMARK   58  A    between atoms: _131  and  _133
REMARK   59  A    between atoms: _133  and  _134
REMARK   60  A    between atoms: _133  and  _136
REMARK   61  A    between atoms: _136  and  _137
REMARK   62  A    between atoms: _140  and  _142
REMARK   63  A    between atoms: _142  and  _143
REMARK   64  A    between atoms: _145  and  _147
REMARK   65  A    between atoms: _147  and  _148
REMARK   66  A    between atoms: _150  and  _152
REMARK   67  A    between atoms: _152  and  _153
REMARK   68  A    between atoms: _152  and  _155
REMARK   69  A    between atoms: _155  and  _156
REMARK   70  A    between atoms: _159  and  _161
REMARK   71  A    between atoms: _161  and  _162
REMARK   72  A    between atoms: _164  and  _166
REMARK   73  A    between atoms: _166  and  _167
REMARK   74  A    between atoms: _169  and  _171
REMARK   75  A    between atoms: _171  and  _172
REMARK   76  A    between atoms: _171  and  _174
REMARK   77  A    between atoms: _174  and  _175
REMARK   78  A    between atoms: _181  and  _183
REMARK   79  A    between atoms: _183  and  _184
REMARK   80  A    between atoms: _183  and  _186
REMARK   81  A    between atoms: _186  and  _187
REMARK   82  A    between atoms: _190  and  _192
REMARK   83  A    between atoms: _192  and  _193
REMARK   84  A    between atoms: _192  and  _195
REMARK   85  A    between atoms: _198  and  _200
REMARK   86  A    between atoms: _200  and  _201
REMARK   87  A    between atoms: _200  and  _203
REMARK   88  A    between atoms: _203  and  _204
REMARK   89  A    between atoms: _208  and  _209
REMARK   90  A    between atoms: _214  and  _216
REMARK   91  A    between atoms: _216  and  _217
REMARK   92  A    between atoms: _216  and  _219
REMARK   93  A    between atoms: _219  and  _220
REMARK   94  A    between atoms: _224  and  _225
REMARK   95  A    between atoms: _230  and  _232
REMARK   96  A    between atoms: _232  and  _233
REMARK   97  A    between atoms: _232  and  _235
REMARK   98  A    between atoms: _238  and  _240
REMARK   99  A    between atoms: _240  and  _241
REMARK  100  A    between atoms: _240  and  _243
REMARK  101  A    between atoms: _243  and  _244
REMARK  102  A    between atoms: _249  and  _251
REMARK  103  A    between atoms: _251  and  _252
REMARK  104  A    between atoms: _251  and  _254
REMARK  105  A    between atoms: _254  and  _255
REMARK  106  A    between atoms: _258  and  _260
REMARK  107  A    between atoms: _260  and  _261
REMARK  108  A    between atoms: _260  and  _263
REMARK  109  A    between atoms: _263  and  _264
REMARK  110  A    between atoms: _267  and  _269
REMARK  111  A    between atoms: _269  and  _270
REMARK  112  A    between atoms: _272  and  _274
REMARK  113  A    between atoms: _274  and  _275
REMARK  114  A    between atoms: _274  and  _277
REMARK  115  A    between atoms: _277  and  _278
REMARK  116  A    between atoms: _278  and  _279
REMARK  117  A    between atoms: _279  and  _280
REMARK  118  A    between atoms: _289  and  _291
REMARK  119  A    between atoms: _291  and  _292
REMARK  120  A    between atoms: _291  and  _294
REMARK  121  A    between atoms: _294  and  _295
REMARK  122  A    between atoms: _300  and  _302
REMARK  123  A    between atoms: _302  and  _303
REMARK  124  A    between atoms: _302  and  _305
REMARK  125  A    between atoms: _305  and  _306
REMARK  126  A    between atoms: _306  and  _307
REMARK  127  A    between atoms: _307  and  _308
REMARK  128  A    between atoms: _317  and  _319
REMARK  129  A    between atoms: _319  and  _320
REMARK  130  A    between atoms: _319  and  _322
REMARK  131  A    between atoms: _322  and  _323
REMARK  132  A    between atoms: _326  and  _328
REMARK  133  A    between atoms: _328  and  _329
REMARK  134  A    between atoms: _328  and  _331
REMARK  135  A    between atoms: _331  and  _332
REMARK  136  A    between atoms: _335  and  _337
REMARK  137  A    between atoms: _337  and  _338
REMARK  138  A    between atoms: _337  and  _340
REMARK  139  A    between atoms: _340  and  _341
REMARK  140  A    between atoms: _344  and  _346
REMARK  141  A    between atoms: _346  and  _347
REMARK  142  A    between atoms: _346  and  _349
REMARK  143  A    between atoms: _349  and  _350
REMARK  144  A    between atoms: _353  and  _355
REMARK  145  A    between atoms: _355  and  _356
REMARK  146  A    between atoms: _355  and  _358
REMARK  147  A    between atoms: _358  and  _359
REMARK  148  A    between atoms: _362  and  _364
REMARK  149  A    between atoms: _364  and  _365
REMARK  150  A    between atoms: _367  and  _369
REMARK  151  A    between atoms: _369  and  _370
REMARK  152  A    between atoms: _373  and  _375
REMARK  153  A    between atoms: _375  and  _376
REMARK  154  A    between atoms: _375  and  _378
REMARK  155  A    between atoms: _378  and  _379
REMARK  156  A    between atoms: _382  and  _384
REMARK  157  A    between atoms: _384  and  _385
REMARK  158  A    between atoms: _384  and  _387
REMARK  159  A    between atoms: _387  and  _388
REMARK  160  A    between atoms: _391  and  _393
REMARK  161  A    between atoms: _393  and  _394
REMARK  162  A    between atoms: _393  and  _396
REMARK  163  A    between atoms: _396  and  _397
REMARK  164  A    between atoms: _400  and  _402
REMARK  165  A    between atoms: _402  and  _403
REMARK  166  A    between atoms: _402  and  _405
REMARK  167  A    between atoms: _408  and  _410
REMARK  168  A    between atoms: _410  and  _411
REMARK  169  A    between atoms: _410  and  _413
REMARK  170  A    between atoms: _413  and  _414
REMARK  171  A    between atoms: _414  and  _415
REMARK  172  A    between atoms: _415  and  _416
REMARK  173  A    between atoms: _416  and  _417
REMARK  174  A    between atoms: _421  and  _423
REMARK  175  A    between atoms: _423  and  _424
REMARK  176  A    between atoms: _423  and  _426
REMARK  177  A    between atoms: _426  and  _427
REMARK  178  A    between atoms: _427  and  _428
REMARK  179  A    between atoms: _430  and  _432
REMARK  180  A    between atoms: _432  and  _433
REMARK  181  A    between atoms: _432  and  _435
REMARK  182  A    between atoms: _435  and  _436
REMARK  183  A    between atoms: _439  and  _441
REMARK  184  A    between atoms: _441  and  _442
REMARK  185  A    between atoms: _444  and  _446
REMARK  186  A    between atoms: _446  and  _447
REMARK  187  A    between atoms: _449  and  _451
REMARK  188  A    between atoms: _451  and  _452
REMARK  189  A    between atoms: _451  and  _454
REMARK  190  A    between atoms: _454  and  _455
REMARK  191  A    between atoms: _458  and  _460
REMARK  192  A    between atoms: _460  and  _461
REMARK  193  A    between atoms: _463  and  _465
REMARK  194  A    between atoms: _465  and  _466
REMARK  195  A    between atoms: _468  and  _470
REMARK  196  A    between atoms: _470  and  _471
REMARK  197  A    between atoms: _470  and  _473
REMARK  198  A    between atoms: _473  and  _474
REMARK  199  A    between atoms: _480  and  _482
REMARK  200  A    between atoms: _482  and  _483
REMARK  201  A    between atoms: _482  and  _485
REMARK  202  A    between atoms: _485  and  _486
REMARK  203  A    between atoms: _489  and  _491
REMARK  204  A    between atoms: _491  and  _492
REMARK  205  A    between atoms: _491  and  _494
REMARK  206  A    between atoms: _497  and  _499
REMARK  207  A    between atoms: _499  and  _500
REMARK  208  A    between atoms: _499  and  _502
REMARK  209  A    between atoms: _502  and  _503
REMARK  210  A    between atoms: _506  and  _508
REMARK  211  A    between atoms: _508  and  _509
REMARK  212  A    between atoms: _508  and  _511
REMARK  213  A    between atoms: _511  and  _512
REMARK  214  A    between atoms: _516  and  _517
REMARK  215  A    between atoms: _522  and  _524
REMARK  216  A    between atoms: _524  and  _525
REMARK  217  A    between atoms: _524  and  _527
REMARK  218  A    between atoms: _530  and  _532
REMARK  219  A    between atoms: _532  and  _533
REMARK  220  A    between atoms: _532  and  _535
REMARK  221  A    between atoms: _535  and  _536
REMARK  222  A    between atoms: _541  and  _543
REMARK  223  A    between atoms: _543  and  _544
REMARK  224  A    between atoms: _543  and  _546
REMARK  225  A    between atoms: _546  and  _547
REMARK  226  A    between atoms: _550  and  _552
REMARK  227  A    between atoms: _552  and  _553
REMARK  228  A    between atoms: _552  and  _555
REMARK  229  A    between atoms: _555  and  _556
REMARK  230  A    between atoms: _559  and  _561
REMARK  231  A    between atoms: _561  and  _562
REMARK  232  A    between atoms: _564  and  _566
REMARK  233  A    between atoms: _566  and  _567
REMARK  234  A    between atoms: _566  and  _569
REMARK  235  A    between atoms: _569  and  _570
REMARK  236  A    between atoms: _570  and  _571
REMARK  237  A    between atoms: _571  and  _572
REMARK  238  A    between atoms: _581  and  _583
REMARK  239  A    between atoms: _583  and  _584
REMARK  240  A    between atoms: _583  and  _586
REMARK  241  A    between atoms: _586  and  _587
REMARK                            x       y       z     vdW  Elec       q    Type
REMARK                         _______ _______ _______ _____ _____    ______ ____
ROOT
ATOM      1  O   HOH     1      23.606 -27.440 -21.517  0.00  0.00    +0.000 OA
ENDROOT
TORSDOF 0
REMARK  Name = ../refined-set-2016/2pk6/2pk6_pocket.pdb
REMARK  241 active torsions:
REMARK  status: ('A' for Active; 'I' for Inactive)
REMARK    1  A    between atoms: _1  and  _3
REMARK    2  A    between atoms: _3  and  _4
REMARK    3  A    between atoms: _3  and  _6
REMARK    4  A    between atoms: _6  and  _7
REMARK    5  A    between atoms: _7  and  _8
REMARK    6  A    between atoms: _8  and  _9
REMARK    7  A    between atoms: _18  and  _20
REMARK    8  A    between atoms: _20  and  _21
REMARK    9  A    between atoms: _20  and  _23
REMARK   10  A    between atoms: _23  and  _24
REMARK   11  A    between atoms: _27  and  _29
REMARK   12  A    between atoms: _29  and  _30
REMARK   13  A    between atoms: _29  and  _32
REMARK   14  A    between atoms: _32  and  _33
REMARK   15  A    between atoms: _36  and  _38
REMARK   16  A    between atoms: _38  and  _39
REMARK   17  A    between atoms: _38  and  _41
REMARK   18  A    between atoms: _41  and  _42
REMARK   19  A    between atoms: _45  and  _47
REMARK   20  A    between atoms: _47  and  _48
REMARK   21  A    between atoms: _47  and  _50
REMARK   22  A    between atoms: _50  and  _51
REMARK   23  A    between atoms: _54  and  _56
REMARK   24  A    between atoms: _56  and  _57
REMARK   25  A    between atoms: _59  and  _61
REMARK   26  A    between atoms: _61  and  _62
REMARK   27  A    between atoms: _65  and  _67
REMARK   28  A    between atoms: _67  and  _68
REMARK   29  A    between atoms: _67  and  _70
REMARK   30  A    between atoms: _70  and  _71
REMARK   31  A    between atoms: _74  and  _76
REMARK   32  A    between atoms: _76  and  _77
REMARK   33  A    between atoms: _76  and  _79
REMARK   34  A    between atoms: _79  and  _80
REMARK   35  A    between atoms: _83  and  _85
REMARK   36  A    between atoms: _85  and  _86
REMARK   37  A    between atoms: _85  and  _88
REMARK   38  A    between atoms: _88  and  _89
REMARK   39  A    between atoms: _92  and  _94
REMARK   40  A    between atoms: _94  and  _95
REMARK   41  A    between atoms: _94  and  _97
REMARK   42  A    between atoms: _100  and  _102
REMARK   43  A    between atoms: _102  and  _103
REMARK   44  A    between atoms: _102  and  _105
REMARK   45  A    between atoms: _105  and  _106
REMARK   46  A    between atoms: _109  and  _111
REMARK   47  A    between atoms: _111  and  _112
REMARK   48  A    between atoms: _111  and  _114
REMARK   49  A    between atoms: _114  and  _115
REMARK   50  A    between atoms: _115  and  _116
REMARK   51  A    between atoms: _116  and  _117
REMARK   52  A    between atoms: _117  and  _118
REMARK   53  A    between atoms: _122  and  _124
REMARK   54  A    between atoms: _124  and  _125
REMARK   55  A    between atoms: _124  and  _127
REMARK   56  A    between atoms: _127  and  _128
REMARK   57  A    between atoms: _128  and  _129
REMARK   58  A    between atoms: _131  and  _133
REMARK   59  A    between atoms: _133  and  _134
REMARK   60  A    between atoms: _133  and  _136
REMARK   61  A    between atoms: _136  and  _137
REMARK   62  A    between atoms: _140  and  _142
REMARK   63  A    between atoms: _142  and  _143
REMARK   64  A    between atoms: _145  and  _147
REMARK   65  A    between atoms: _147  and  _148
REMARK   66  A    between atoms: _150  and  _152
REMARK   67  A    between atoms: _152  and  _153
REMARK   68  A    between atoms: _152  and  _155
REMARK   69  A    between atoms: _155  and  _156
REMARK   70  A    between atoms: _159  and  _161
REMARK   71  A    between atoms: _161  and  _162
REMARK   72  A    between atoms: _164  and  _166
REMARK   73  A    between atoms: _166  and  _167
REMARK   74  A    between atoms: _169  and  _171
REMARK   75  A    between atoms: _171  and  _172
REMARK   76  A    between atoms: _171  and  _174
REMARK   77  A    between atoms: _174  and  _175
REMARK   78  A    between atoms: _181  and  _183
REMARK   79  A    between atoms: _183  and  _184
REMARK   80  A    between atoms: _183  and  _186
REMARK   81  A    between atoms: _186  and  _187
REMARK   82  A    between atoms: _190  and  _192
REMARK   83  A    between atoms: _192  and  _193
REMARK   84  A    between atoms: _192  and  _195
REMARK   85  A    between atoms: _198  and  _200
REMARK   86  A    between atoms: _200  and  _201
REMARK   87  A    between atoms: _200  and  _203
REMARK   88  A    between atoms: _203  and  _204
REMARK   89  A    between atoms: _208  and  _209
REMARK   90  A    between atoms: _214  and  _216
REMARK   91  A    between atoms: _216  and  _217
REMARK   92  A    between atoms: _216  and  _219
REMARK   93  A    between atoms: _219  and  _220
REMARK   94  A    between atoms: _224  and  _225
REMARK   95  A    between atoms: _230  and  _232
REMARK   96  A    between atoms: _232  and  _233
REMARK   97  A    between atoms: _232  and  _235
REMARK   98  A    between atoms: _238  and  _240
REMARK   99  A    between atoms: _240  and  _241
REMARK  100  A    between atoms: _240  and  _243
REMARK  101  A    between atoms: _243  and  _244
REMARK  102  A    between atoms: _249  and  _251
REMARK  103  A    between atoms: _251  and  _252
REMARK  104  A    between atoms: _251  and  _254
REMARK  105  A    between atoms: _254  and  _255
REMARK  106  A    between atoms: _258  and  _260
REMARK  107  A    between atoms: _260  and  _261
REMARK  108  A    between atoms: _260  and  _263
REMARK  109  A    between atoms: _263  and  _264
REMARK  110  A    between atoms: _267  and  _269
REMARK  111  A    between atoms: _269  and  _270
REMARK  112  A    between atoms: _272  and  _274
REMARK  113  A    between atoms: _274  and  _275
REMARK  114  A    between atoms: _274  and  _277
REMARK  115  A    between atoms: _277  and  _278
REMARK  116  A    between atoms: _278  and  _279
REMARK  117  A    between atoms: _279  and  _280
REMARK  118  A    between atoms: _289  and  _291
REMARK  119  A    between atoms: _291  and  _292
REMARK  120  A    between atoms: _291  and  _294
REMARK  121  A    between atoms: _294  and  _295
REMARK  122  A    between atoms: _300  and  _302
REMARK  123  A    between atoms: _302  and  _303
REMARK  124  A    between atoms: _302  and  _305
REMARK  125  A    between atoms: _305  and  _306
REMARK  126  A    between atoms: _306  and  _307
REMARK  127  A    between atoms: _307  and  _308
REMARK  128  A    between atoms: _317  and  _319
REMARK  129  A    between atoms: _319  and  _320
REMARK  130  A    between atoms: _319  and  _322
REMARK  131  A    between atoms: _322  and  _323
REMARK  132  A    between atoms: _326  and  _328
REMARK  133  A    between atoms: _328  and  _329
REMARK  134  A    between atoms: _328  and  _331
REMARK  135  A    between atoms: _331  and  _332
REMARK  136  A    between atoms: _335  and  _337
REMARK  137  A    between atoms: _337  and  _338
REMARK  138  A    between atoms: _337  and  _340
REMARK  139  A    between atoms: _340  and  _341
REMARK  140  A    between atoms: _344  and  _346
REMARK  141  A    between atoms: _346  and  _347
REMARK  142  A    between atoms: _346  and  _349
REMARK  143  A    between atoms: _349  and  _350
REMARK  144  A    between atoms: _353  and  _355
REMARK  145  A    between atoms: _355  and  _356
REMARK  146  A    between atoms: _355  and  _358
REMARK  147  A    between atoms: _358  and  _359
REMARK  148  A    between atoms: _362  and  _364
REMARK  149  A    between atoms: _364  and  _365
REMARK  150  A    between atoms: _367  and  _369
REMARK  151  A    between atoms: _369  and  _370
REMARK  152  A    between atoms: _373  and  _375
REMARK  153  A    between atoms: _375  and  _376
REMARK  154  A    between atoms: _375  and  _378
REMARK  155  A    between atoms: _378  and  _379
REMARK  156  A    between atoms: _382  and  _384
REMARK  157  A    between atoms: _384  and  _385
REMARK  158  A    between atoms: _384  and  _387
REMARK  159  A    between atoms: _387  and  _388
REMARK  160  A    between atoms: _391  and  _393
REMARK  161  A    between atoms: _393  and  _394
REMARK  162  A    between atoms: _393  and  _396
REMARK  163  A    between atoms: _396  and  _397
REMARK  164  A    between atoms: _400  and  _402
REMARK  165  A    between atoms: _402  and  _403
REMARK  166  A    between atoms: _402  and  _405
REMARK  167  A    between atoms: _408  and  _410
REMARK  168  A    between atoms: _410  and  _411
REMARK  169  A    between atoms: _410  and  _413
REMARK  170  A    between atoms: _413  and  _414
REMARK  171  A    between atoms: _414  and  _415
REMARK  172  A    between atoms: _415  and  _416
REMARK  173  A    between atoms: _416  and  _417
REMARK  174  A    between atoms: _421  and  _423
REMARK  175  A    between atoms: _423  and  _424
REMARK  176  A    between atoms: _423  and  _426
REMARK  177  A    between atoms: _426  and  _427
REMARK  178  A    between atoms: _427  and  _428
REMARK  179  A    between atoms: _430  and  _432
REMARK  180  A    between atoms: _432  and  _433
REMARK  181  A    between atoms: _432  and  _435
REMARK  182  A    between atoms: _435  and  _436
REMARK  183  A    between atoms: _439  and  _441
REMARK  184  A    between atoms: _441  and  _442
REMARK  185  A    between atoms: _444  and  _446
REMARK  186  A    between atoms: _446  and  _447
REMARK  187  A    between atoms: _449  and  _451
REMARK  188  A    between atoms: _451  and  _452
REMARK  189  A    between atoms: _451  and  _454
REMARK  190  A    between atoms: _454  and  _455
REMARK  191  A    between atoms: _458  and  _460
REMARK  192  A    between atoms: _460  and  _461
REMARK  193  A    between atoms: _463  and  _465
REMARK  194  A    between atoms: _465  and  _466
REMARK  195  A    between atoms: _468  and  _470
REMARK  196  A    between atoms: _470  and  _471
REMARK  197  A    between atoms: _470  and  _473
REMARK  198  A    between atoms: _473  and  _474
REMARK  199  A    between atoms: _480  and  _482
REMARK  200  A    between atoms: _482  and  _483
REMARK  201  A    between atoms: _482  and  _485
REMARK  202  A    between atoms: _485  and  _486
REMARK  203  A    between atoms: _489  and  _491
REMARK  204  A    between atoms: _491  and  _492
REMARK  205  A    between atoms: _491  and  _494
REMARK  206  A    between atoms: _497  and  _499
REMARK  207  A    between atoms: _499  and  _500
REMARK  208  A    between atoms: _499  and  _502
REMARK  209  A    between atoms: _502  and  _503
REMARK  210  A    between atoms: _506  and  _508
REMARK  211  A    between atoms: _508  and  _509
REMARK  212  A    between atoms: _508  and  _511
REMARK  213  A    between atoms: _511  and  _512
REMARK  214  A    between atoms: _516  and  _517
REMARK  215  A    between atoms: _522  and  _524
REMARK  216  A    between atoms: _524  and  _525
REMARK  217  A    between atoms: _524  and  _527
REMARK  218  A    between atoms: _530  and  _532
REMARK  219  A    between atoms: _532  and  _533
REMARK  220  A    between atoms: _532  and  _535
REMARK  221  A    between atoms: _535  and  _536
REMARK  222  A    between atoms: _541  and  _543
REMARK  223  A    between atoms: _543  and  _544
REMARK  224  A    between atoms: _543  and  _546
REMARK  225  A    between atoms: _546  and  _547
REMARK  226  A    between atoms: _550  and  _552
REMARK  227  A    between atoms: _552  and  _553
REMARK  228  A    between atoms: _552  and  _555
REMARK  229  A    between atoms: _555  and  _556
REMARK  230  A    between atoms: _559  and  _561
REMARK  231  A    between atoms: _561  and  _562
REMARK  232  A    between atoms: _564  and  _566
REMARK  233  A    between atoms: _566  and  _567
REMARK  234  A    between atoms: _566  and  _569
REMARK  235  A    between atoms: _569  and  _570
REMARK  236  A    between atoms: _570  and  _571
REMARK  237  A    between atoms: _571  and  _572
REMARK  238  A    between atoms: _581  and  _583
REMARK  239  A    between atoms: _583  and  _584
REMARK  240  A    between atoms: _583  and  _586
REMARK  241  A    between atoms: _586  and  _587
REMARK                            x       y       z     vdW  Elec       q    Type
REMARK                         _______ _______ _______ _____ _____    ______ ____
ROOT
ATOM      1  O   HOH     1      18.620 -26.620 -19.123  0.00  0.00    +0.000 OA
ENDROOT
TORSDOF 0
