REMARK  Name = ../refined-set-2016/1qbu/1qbu_pocket.pdb
REMARK  210 active torsions:
REMARK  status: ('A' for Active; 'I' for Inactive)
REMARK    1  A    between atoms: _1  and  _3
REMARK    2  A    between atoms: _3  and  _4
REMARK    3  A    between atoms: _3  and  _6
REMARK    4  A    between atoms: _6  and  _7
REMARK    5  A    between atoms: _7  and  _8
REMARK    6  A    between atoms: _8  and  _9
REMARK    7  A    between atoms: _18  and  _20
REMARK    8  A    between atoms: _20  and  _21
REMARK    9  A    between atoms: _20  and  _23
REMARK   10  A    between atoms: _23  and  _24
REMARK   11  A    between atoms: _27  and  _29
REMARK   12  A    between atoms: _29  and  _30
REMARK   13  A    between atoms: _29  and  _32
REMARK   14  A    between atoms: _32  and  _33
REMARK   15  A    between atoms: _36  and  _38
REMARK   16  A    between atoms: _38  and  _39
REMARK   17  A    between atoms: _38  and  _41
REMARK   18  A    between atoms: _41  and  _42
REMARK   19  A    between atoms: _45  and  _47
REMARK   20  A    between atoms: _47  and  _48
REMARK   21  A    between atoms: _47  and  _50
REMARK   22  A    between atoms: _50  and  _51
REMARK   23  A    between atoms: _54  and  _56
REMARK   24  A    between atoms: _56  and  _57
REMARK   25  A    between atoms: _59  and  _61
REMARK   26  A    between atoms: _61  and  _62
REMARK   27  A    between atoms: _65  and  _67
REMARK   28  A    between atoms: _67  and  _68
REMARK   29  A    between atoms: _67  and  _70
REMARK   30  A    between atoms: _70  and  _71
REMARK   31  A    between atoms: _74  and  _76
REMARK   32  A    between atoms: _76  and  _77
REMARK   33  A    between atoms: _76  and  _79
REMARK   34  A    between atoms: _79  and  _80
REMARK   35  A    between atoms: _83  and  _85
REMARK   36  A    between atoms: _85  and  _86
REMARK   37  A    between atoms: _85  and  _88
REMARK   38  A    between atoms: _88  and  _89
REMARK   39  A    between atoms: _92  and  _94
REMARK   40  A    between atoms: _94  and  _95
REMARK   41  A    between atoms: _94  and  _97
REMARK   42  A    between atoms: _100  and  _102
REMARK   43  A    between atoms: _102  and  _103
REMARK   44  A    between atoms: _102  and  _105
REMARK   45  A    between atoms: _105  and  _106
REMARK   46  A    between atoms: _109  and  _111
REMARK   47  A    between atoms: _111  and  _112
REMARK   48  A    between atoms: _111  and  _114
REMARK   49  A    between atoms: _114  and  _115
REMARK   50  A    between atoms: _115  and  _116
REMARK   51  A    between atoms: _116  and  _117
REMARK   52  A    between atoms: _117  and  _118
REMARK   53  A    between atoms: _122  and  _124
REMARK   54  A    between atoms: _124  and  _125
REMARK   55  A    between atoms: _124  and  _127
REMARK   56  A    between atoms: _127  and  _128
REMARK   57  A    between atoms: _128  and  _129
REMARK   58  A    between atoms: _131  and  _133
REMARK   59  A    between atoms: _133  and  _134
REMARK   60  A    between atoms: _133  and  _136
REMARK   61  A    between atoms: _136  and  _137
REMARK   62  A    between atoms: _140  and  _142
REMARK   63  A    between atoms: _142  and  _143
REMARK   64  A    between atoms: _145  and  _147
REMARK   65  A    between atoms: _147  and  _148
REMARK   66  A    between atoms: _150  and  _152
REMARK   67  A    between atoms: _152  and  _153
REMARK   68  A    between atoms: _152  and  _155
REMARK   69  A    between atoms: _155  and  _156
REMARK   70  A    between atoms: _159  and  _161
REMARK   71  A    between atoms: _161  and  _162
REMARK   72  A    between atoms: _164  and  _166
REMARK   73  A    between atoms: _166  and  _167
REMARK   74  A    between atoms: _169  and  _171
REMARK   75  A    between atoms: _171  and  _172
REMARK   76  A    between atoms: _171  and  _174
REMARK   77  A    between atoms: _174  and  _175
REMARK   78  A    between atoms: _181  and  _183
REMARK   79  A    between atoms: _183  and  _184
REMARK   80  A    between atoms: _183  and  _186
REMARK   81  A    between atoms: _186  and  _187
REMARK   82  A    between atoms: _190  and  _192
REMARK   83  A    between atoms: _192  and  _193
REMARK   84  A    between atoms: _192  and  _195
REMARK   85  A    between atoms: _195  and  _196
REMARK   86  A    between atoms: _199  and  _201
REMARK   87  A    between atoms: _201  and  _202
REMARK   88  A    between atoms: _201  and  _204
REMARK   89  A    between atoms: _204  and  _205
REMARK   90  A    between atoms: _209  and  _210
REMARK   91  A    between atoms: _215  and  _217
REMARK   92  A    between atoms: _217  and  _218
REMARK   93  A    between atoms: _217  and  _220
REMARK   94  A    between atoms: _223  and  _225
REMARK   95  A    between atoms: _225  and  _226
REMARK   96  A    between atoms: _225  and  _228
REMARK   97  A    between atoms: _228  and  _229
REMARK   98  A    between atoms: _234  and  _236
REMARK   99  A    between atoms: _236  and  _237
REMARK  100  A    between atoms: _236  and  _239
REMARK  101  A    between atoms: _239  and  _240
REMARK  102  A    between atoms: _243  and  _245
REMARK  103  A    between atoms: _245  and  _246
REMARK  104  A    between atoms: _245  and  _248
REMARK  105  A    between atoms: _248  and  _249
REMARK  106  A    between atoms: _252  and  _254
REMARK  107  A    between atoms: _254  and  _255
REMARK  108  A    between atoms: _257  and  _259
REMARK  109  A    between atoms: _259  and  _260
REMARK  110  A    between atoms: _259  and  _262
REMARK  111  A    between atoms: _262  and  _263
REMARK  112  A    between atoms: _263  and  _264
REMARK  113  A    between atoms: _264  and  _265
REMARK  114  A    between atoms: _274  and  _276
REMARK  115  A    between atoms: _276  and  _277
REMARK  116  A    between atoms: _276  and  _279
REMARK  117  A    between atoms: _279  and  _280
REMARK  118  A    between atoms: _285  and  _287
REMARK  119  A    between atoms: _287  and  _288
REMARK  120  A    between atoms: _287  and  _290
REMARK  121  A    between atoms: _290  and  _291
REMARK  122  A    between atoms: _291  and  _292
REMARK  123  A    between atoms: _292  and  _293
REMARK  124  A    between atoms: _302  and  _304
REMARK  125  A    between atoms: _304  and  _305
REMARK  126  A    between atoms: _304  and  _307
REMARK  127  A    between atoms: _307  and  _308
REMARK  128  A    between atoms: _311  and  _313
REMARK  129  A    between atoms: _313  and  _314
REMARK  130  A    between atoms: _313  and  _316
REMARK  131  A    between atoms: _316  and  _317
REMARK  132  A    between atoms: _320  and  _322
REMARK  133  A    between atoms: _322  and  _323
REMARK  134  A    between atoms: _322  and  _325
REMARK  135  A    between atoms: _325  and  _326
REMARK  136  A    between atoms: _329  and  _331
REMARK  137  A    between atoms: _331  and  _332
REMARK  138  A    between atoms: _331  and  _334
REMARK  139  A    between atoms: _334  and  _335
REMARK  140  A    between atoms: _338  and  _340
REMARK  141  A    between atoms: _340  and  _341
REMARK  142  A    between atoms: _343  and  _345
REMARK  143  A    between atoms: _345  and  _346
REMARK  144  A    between atoms: _349  and  _351
REMARK  145  A    between atoms: _351  and  _352
REMARK  146  A    between atoms: _351  and  _354
REMARK  147  A    between atoms: _354  and  _355
REMARK  148  A    between atoms: _358  and  _360
REMARK  149  A    between atoms: _360  and  _361
REMARK  150  A    between atoms: _360  and  _363
REMARK  151  A    between atoms: _363  and  _364
REMARK  152  A    between atoms: _367  and  _369
REMARK  153  A    between atoms: _369  and  _370
REMARK  154  A    between atoms: _369  and  _372
REMARK  155  A    between atoms: _372  and  _373
REMARK  156  A    between atoms: _376  and  _378
REMARK  157  A    between atoms: _378  and  _379
REMARK  158  A    between atoms: _378  and  _381
REMARK  159  A    between atoms: _384  and  _386
REMARK  160  A    between atoms: _386  and  _387
REMARK  161  A    between atoms: _386  and  _389
REMARK  162  A    between atoms: _389  and  _390
REMARK  163  A    between atoms: _393  and  _395
REMARK  164  A    between atoms: _395  and  _396
REMARK  165  A    between atoms: _398  and  _400
REMARK  166  A    between atoms: _400  and  _401
REMARK  167  A    between atoms: _403  and  _405
REMARK  168  A    between atoms: _405  and  _406
REMARK  169  A    between atoms: _405  and  _408
REMARK  170  A    between atoms: _408  and  _409
REMARK  171  A    between atoms: _412  and  _414
REMARK  172  A    between atoms: _414  and  _415
REMARK  173  A    between atoms: _417  and  _419
REMARK  174  A    between atoms: _419  and  _420
REMARK  175  A    between atoms: _422  and  _424
REMARK  176  A    between atoms: _424  and  _425
REMARK  177  A    between atoms: _424  and  _427
REMARK  178  A    between atoms: _427  and  _428
REMARK  179  A    between atoms: _431  and  _433
REMARK  180  A    between atoms: _433  and  _434
REMARK  181  A    between atoms: _433  and  _436
REMARK  182  A    between atoms: _436  and  _437
REMARK  183  A    between atoms: _440  and  _442
REMARK  184  A    between atoms: _442  and  _443
REMARK  185  A    between atoms: _442  and  _445
REMARK  186  A    between atoms: _445  and  _446
REMARK  187  A    between atoms: _450  and  _451
REMARK  188  A    between atoms: _456  and  _458
REMARK  189  A    between atoms: _458  and  _459
REMARK  190  A    between atoms: _458  and  _461
REMARK  191  A    between atoms: _464  and  _466
REMARK  192  A    between atoms: _466  and  _467
REMARK  193  A    between atoms: _466  and  _469
REMARK  194  A    between atoms: _469  and  _470
REMARK  195  A    between atoms: _475  and  _477
REMARK  196  A    between atoms: _477  and  _478
REMARK  197  A    between atoms: _477  and  _480
REMARK  198  A    between atoms: _480  and  _481
REMARK  199  A    between atoms: _484  and  _486
REMARK  200  A    between atoms: _486  and  _487
REMARK  201  A    between atoms: _486  and  _489
REMARK  202  A    between atoms: _489  and  _490
REMARK  203  A    between atoms: _493  and  _495
REMARK  204  A    between atoms: _495  and  _496
REMARK  205  A    between atoms: _498  and  _500
REMARK  206  A    between atoms: _500  and  _501
REMARK  207  A    between atoms: _500  and  _503
REMARK  208  A    between atoms: _503  and  _504
REMARK  209  A    between atoms: _504  and  _505
REMARK  210  A    between atoms: _505  and  _506
REMARK                            x       y       z     vdW  Elec       q    Type
REMARK                         _______ _______ _______ _____ _____    ______ ____
ROOT
ATOM      1  NE  ARG A   1      -3.345  24.130  23.157  0.00  0.00    -0.265 N 
ATOM      2  HE  ARG A   1      -3.722  24.270  24.116  0.00  0.00    +0.259 HD
ATOM      3  CZ  ARG A   1      -2.951  22.919  22.739  0.00  0.00    +0.342 C 
ATOM      4  NH2 ARG A   1      -2.740  21.959  23.623  0.00  0.00    -0.292 N 
ATOM      5 HH21 ARG A   1      -2.880  22.146  24.637  0.00  0.00    +0.255 HD
ATOM      6 HH22 ARG A   1      -2.434  21.017  23.305  0.00  0.00    +0.255 HD
ATOM      7  NH1 ARG A   1      -2.741  22.646  21.451  0.00  0.00    -0.292 N 
ATOM      8 HH11 ARG A   1      -2.436  21.694  21.164  0.00  0.00    +0.255 HD
ATOM      9 HH12 ARG A   1      -2.883  23.385  20.733  0.00  0.00    +0.255 HD
ENDROOT
BRANCH   1  10
ATOM     10  CD  ARG A   1      -3.229  25.248  22.223  0.00  0.00    +0.174 C 
BRANCH  10  11
ATOM     11  CG  ARG A   1      -4.528  26.031  22.062  0.00  0.00    +0.045 C 
BRANCH  11  12
ATOM     12  CB  ARG A   1      -4.770  27.096  23.122  0.00  0.00    +0.029 C 
BRANCH  12  13
ATOM     13  CA  ARG A   1      -6.050  27.849  22.772  0.00  0.00    +0.133 C 
BRANCH  13  14
ATOM     14  N   ARG A   1      -5.876  28.561  21.509  0.00  0.00    -0.239 NA
ATOM     15  H   ARG A   1      -4.949  28.626  21.042  0.00  0.00    +0.142 HD
ENDBRANCH  13  14
BRANCH  13  16
ATOM     16  C   ARG A   1      -6.360  28.801  23.880  0.00  0.00    +0.224 C 
ATOM     17  O   ARG A   1      -5.681  29.796  24.022  0.00  0.00    -0.287 OA
ENDBRANCH  13  16
ENDBRANCH  12  13
ENDBRANCH  11  12
ENDBRANCH  10  11
ENDBRANCH   1  10
TORSDOF 6
REMARK  Name = ../refined-set-2016/1qbu/1qbu_pocket.pdb
REMARK  210 active torsions:
REMARK  status: ('A' for Active; 'I' for Inactive)
REMARK    1  A    between atoms: _1  and  _3
REMARK    2  A    between atoms: _3  and  _4
REMARK    3  A    between atoms: _3  and  _6
REMARK    4  A    between atoms: _6  and  _7
REMARK    5  A    between atoms: _7  and  _8
REMARK    6  A    between atoms: _8  and  _9
REMARK    7  A    between atoms: _18  and  _20
REMARK    8  A    between atoms: _20  and  _21
REMARK    9  A    between atoms: _20  and  _23
REMARK   10  A    between atoms: _23  and  _24
REMARK   11  A    between atoms: _27  and  _29
REMARK   12  A    between atoms: _29  and  _30
REMARK   13  A    between atoms: _29  and  _32
REMARK   14  A    between atoms: _32  and  _33
REMARK   15  A    between atoms: _36  and  _38
REMARK   16  A    between atoms: _38  and  _39
REMARK   17  A    between atoms: _38  and  _41
REMARK   18  A    between atoms: _41  and  _42
REMARK   19  A    between atoms: _45  and  _47
REMARK   20  A    between atoms: _47  and  _48
REMARK   21  A    between atoms: _47  and  _50
REMARK   22  A    between atoms: _50  and  _51
REMARK   23  A    between atoms: _54  and  _56
REMARK   24  A    between atoms: _56  and  _57
REMARK   25  A    between atoms: _59  and  _61
REMARK   26  A    between atoms: _61  and  _62
REMARK   27  A    between atoms: _65  and  _67
REMARK   28  A    between atoms: _67  and  _68
REMARK   29  A    between atoms: _67  and  _70
REMARK   30  A    between atoms: _70  and  _71
REMARK   31  A    between atoms: _74  and  _76
REMARK   32  A    between atoms: _76  and  _77
REMARK   33  A    between atoms: _76  and  _79
REMARK   34  A    between atoms: _79  and  _80
REMARK   35  A    between atoms: _83  and  _85
REMARK   36  A    between atoms: _85  and  _86
REMARK   37  A    between atoms: _85  and  _88
REMARK   38  A    between atoms: _88  and  _89
REMARK   39  A    between atoms: _92  and  _94
REMARK   40  A    between atoms: _94  and  _95
REMARK   41  A    between atoms: _94  and  _97
REMARK   42  A    between atoms: _100  and  _102
REMARK   43  A    between atoms: _102  and  _103
REMARK   44  A    between atoms: _102  and  _105
REMARK   45  A    between atoms: _105  and  _106
REMARK   46  A    between atoms: _109  and  _111
REMARK   47  A    between atoms: _111  and  _112
REMARK   48  A    between atoms: _111  and  _114
REMARK   49  A    between atoms: _114  and  _115
REMARK   50  A    between atoms: _115  and  _116
REMARK   51  A    between atoms: _116  and  _117
REMARK   52  A    between atoms: _117  and  _118
REMARK   53  A    between atoms: _122  and  _124
REMARK   54  A    between atoms: _124  and  _125
REMARK   55  A    between atoms: _124  and  _127
REMARK   56  A    between atoms: _127  and  _128
REMARK   57  A    between atoms: _128  and  _129
REMARK   58  A    between atoms: _131  and  _133
REMARK   59  A    between atoms: _133  and  _134
REMARK   60  A    between atoms: _133  and  _136
REMARK   61  A    between atoms: _136  and  _137
REMARK   62  A    between atoms: _140  and  _142
REMARK   63  A    between atoms: _142  and  _143
REMARK   64  A    between atoms: _145  and  _147
REMARK   65  A    between atoms: _147  and  _148
REMARK   66  A    between atoms: _150  and  _152
REMARK   67  A    between atoms: _152  and  _153
REMARK   68  A    between atoms: _152  and  _155
REMARK   69  A    between atoms: _155  and  _156
REMARK   70  A    between atoms: _159  and  _161
REMARK   71  A    between atoms: _161  and  _162
REMARK   72  A    between atoms: _164  and  _166
REMARK   73  A    between atoms: _166  and  _167
REMARK   74  A    between atoms: _169  and  _171
REMARK   75  A    between atoms: _171  and  _172
REMARK   76  A    between atoms: _171  and  _174
REMARK   77  A    between atoms: _174  and  _175
REMARK   78  A    between atoms: _181  and  _183
REMARK   79  A    between atoms: _183  and  _184
REMARK   80  A    between atoms: _183  and  _186
REMARK   81  A    between atoms: _186  and  _187
REMARK   82  A    between atoms: _190  and  _192
REMARK   83  A    between atoms: _192  and  _193
REMARK   84  A    between atoms: _192  and  _195
REMARK   85  A    between atoms: _195  and  _196
REMARK   86  A    between atoms: _199  and  _201
REMARK   87  A    between atoms: _201  and  _202
REMARK   88  A    between atoms: _201  and  _204
REMARK   89  A    between atoms: _204  and  _205
REMARK   90  A    between atoms: _209  and  _210
REMARK   91  A    between atoms: _215  and  _217
REMARK   92  A    between atoms: _217  and  _218
REMARK   93  A    between atoms: _217  and  _220
REMARK   94  A    between atoms: _223  and  _225
REMARK   95  A    between atoms: _225  and  _226
REMARK   96  A    between atoms: _225  and  _228
REMARK   97  A    between atoms: _228  and  _229
REMARK   98  A    between atoms: _234  and  _236
REMARK   99  A    between atoms: _236  and  _237
REMARK  100  A    between atoms: _236  and  _239
REMARK  101  A    between atoms: _239  and  _240
REMARK  102  A    between atoms: _243  and  _245
REMARK  103  A    between atoms: _245  and  _246
REMARK  104  A    between atoms: _245  and  _248
REMARK  105  A    between atoms: _248  and  _249
REMARK  106  A    between atoms: _252  and  _254
REMARK  107  A    between atoms: _254  and  _255
REMARK  108  A    between atoms: _257  and  _259
REMARK  109  A    between atoms: _259  and  _260
REMARK  110  A    between atoms: _259  and  _262
REMARK  111  A    between atoms: _262  and  _263
REMARK  112  A    between atoms: _263  and  _264
REMARK  113  A    between atoms: _264  and  _265
REMARK  114  A    between atoms: _274  and  _276
REMARK  115  A    between atoms: _276  and  _277
REMARK  116  A    between atoms: _276  and  _279
REMARK  117  A    between atoms: _279  and  _280
REMARK  118  A    between atoms: _285  and  _287
REMARK  119  A    between atoms: _287  and  _288
REMARK  120  A    between atoms: _287  and  _290
REMARK  121  A    between atoms: _290  and  _291
REMARK  122  A    between atoms: _291  and  _292
REMARK  123  A    between atoms: _292  and  _293
REMARK  124  A    between atoms: _302  and  _304
REMARK  125  A    between atoms: _304  and  _305
REMARK  126  A    between atoms: _304  and  _307
REMARK  127  A    between atoms: _307  and  _308
REMARK  128  A    between atoms: _311  and  _313
REMARK  129  A    between atoms: _313  and  _314
REMARK  130  A    between atoms: _313  and  _316
REMARK  131  A    between atoms: _316  and  _317
REMARK  132  A    between atoms: _320  and  _322
REMARK  133  A    between atoms: _322  and  _323
REMARK  134  A    between atoms: _322  and  _325
REMARK  135  A    between atoms: _325  and  _326
REMARK  136  A    between atoms: _329  and  _331
REMARK  137  A    between atoms: _331  and  _332
REMARK  138  A    between atoms: _331  and  _334
REMARK  139  A    between atoms: _334  and  _335
REMARK  140  A    between atoms: _338  and  _340
REMARK  141  A    between atoms: _340  and  _341
REMARK  142  A    between atoms: _343  and  _345
REMARK  143  A    between atoms: _345  and  _346
REMARK  144  A    between atoms: _349  and  _351
REMARK  145  A    between atoms: _351  and  _352
REMARK  146  A    between atoms: _351  and  _354
REMARK  147  A    between atoms: _354  and  _355
REMARK  148  A    between atoms: _358  and  _360
REMARK  149  A    between atoms: _360  and  _361
REMARK  150  A    between atoms: _360  and  _363
REMARK  151  A    between atoms: _363  and  _364
REMARK  152  A    between atoms: _367  and  _369
REMARK  153  A    between atoms: _369  and  _370
REMARK  154  A    between atoms: _369  and  _372
REMARK  155  A    between atoms: _372  and  _373
REMARK  156  A    between atoms: _376  and  _378
REMARK  157  A    between atoms: _378  and  _379
REMARK  158  A    between atoms: _378  and  _381
REMARK  159  A    between atoms: _384  and  _386
REMARK  160  A    between atoms: _386  and  _387
REMARK  161  A    between atoms: _386  and  _389
REMARK  162  A    between atoms: _389  and  _390
REMARK  163  A    between atoms: _393  and  _395
REMARK  164  A    between atoms: _395  and  _396
REMARK  165  A    between atoms: _398  and  _400
REMARK  166  A    between atoms: _400  and  _401
REMARK  167  A    between atoms: _403  and  _405
REMARK  168  A    between atoms: _405  and  _406
REMARK  169  A    between atoms: _405  and  _408
REMARK  170  A    between atoms: _408  and  _409
REMARK  171  A    between atoms: _412  and  _414
REMARK  172  A    between atoms: _414  and  _415
REMARK  173  A    between atoms: _417  and  _419
REMARK  174  A    between atoms: _419  and  _420
REMARK  175  A    between atoms: _422  and  _424
REMARK  176  A    between atoms: _424  and  _425
REMARK  177  A    between atoms: _424  and  _427
REMARK  178  A    between atoms: _427  and  _428
REMARK  179  A    between atoms: _431  and  _433
REMARK  180  A    between atoms: _433  and  _434
REMARK  181  A    between atoms: _433  and  _436
REMARK  182  A    between atoms: _436  and  _437
REMARK  183  A    between atoms: _440  and  _442
REMARK  184  A    between atoms: _442  and  _443
REMARK  185  A    between atoms: _442  and  _445
REMARK  186  A    between atoms: _445  and  _446
REMARK  187  A    between atoms: _450  and  _451
REMARK  188  A    between atoms: _456  and  _458
REMARK  189  A    between atoms: _458  and  _459
REMARK  190  A    between atoms: _458  and  _461
REMARK  191  A    between atoms: _464  and  _466
REMARK  192  A    between atoms: _466  and  _467
REMARK  193  A    between atoms: _466  and  _469
REMARK  194  A    between atoms: _469  and  _470
REMARK  195  A    between atoms: _475  and  _477
REMARK  196  A    between atoms: _477  and  _478
REMARK  197  A    between atoms: _477  and  _480
REMARK  198  A    between atoms: _480  and  _481
REMARK  199  A    between atoms: _484  and  _486
REMARK  200  A    between atoms: _486  and  _487
REMARK  201  A    between atoms: _486  and  _489
REMARK  202  A    between atoms: _489  and  _490
REMARK  203  A    between atoms: _493  and  _495
REMARK  204  A    between atoms: _495  and  _496
REMARK  205  A    between atoms: _498  and  _500
REMARK  206  A    between atoms: _500  and  _501
REMARK  207  A    between atoms: _500  and  _503
REMARK  208  A    between atoms: _503  and  _504
REMARK  209  A    between atoms: _504  and  _505
REMARK  210  A    between atoms: _505  and  _506
REMARK                            x       y       z     vdW  Elec       q    Type
REMARK                         _______ _______ _______ _____ _____    ______ ____
ROOT
ATOM      1  C   ALA A   6     -12.865  18.923  33.941  0.00  0.00    +0.241 C 
ATOM      2  N   ASP A   7     -12.878  17.911  34.793  0.00  0.00    -0.297 N 
ATOM      3  H   ASP A   7     -12.416  17.004  34.581  0.00  0.00    +0.150 HD
ATOM      4  O   ALA A   6     -13.343  20.018  34.187  0.00  0.00    -0.273 OA
ENDROOT
BRANCH   1   5
ATOM      5  CA  ALA A   6     -12.224  18.620  32.625  0.00  0.00    +0.149 C 
ATOM      6  CB  ALA A   6     -10.777  19.042  32.717  0.00  0.00    +0.031 C 
BRANCH   5   8
ATOM      7  C   GLY A   5     -13.954  18.775  30.974  0.00  0.00    +0.243 C 
ATOM      8  N   ALA A   6     -12.890  19.333  31.542  0.00  0.00    -0.297 N 
ATOM      9  H   ALA A   6     -12.540  20.258  31.221  0.00  0.00    +0.150 HD
ATOM     10  O   GLY A   5     -14.481  17.762  31.392  0.00  0.00    -0.273 OA
BRANCH   7  11
ATOM     11  CA  GLY A   5     -14.416  19.463  29.722  0.00  0.00    +0.176 C 
BRANCH  11  14
ATOM     12  C   THR A   4     -14.898  21.677  30.431  0.00  0.00    +0.243 C 
ATOM     13  O   THR A   4     -15.872  21.273  31.035  0.00  0.00    -0.273 OA
ATOM     14  N   GLY A   5     -14.105  20.882  29.716  0.00  0.00    -0.295 N 
ATOM     15  H   GLY A   5     -13.299  21.260  29.178  0.00  0.00    +0.150 HD
BRANCH  12  16
ATOM     16  CA  THR A   4     -14.521  23.145  30.405  0.00  0.00    +0.176 C 
BRANCH  16  19
ATOM     17  C   ASP A   3     -12.134  23.143  30.577  0.00  0.00    +0.241 C 
ATOM     18  O   ASP A   3     -12.226  22.547  31.634  0.00  0.00    -0.273 OA
ATOM     19  N   THR A   4     -13.200  23.468  29.860  0.00  0.00    -0.295 N 
ATOM     20  H   THR A   4     -13.102  23.938  28.938  0.00  0.00    +0.150 HD
BRANCH  17  21
ATOM     21  CA  ASP A   3     -10.788  23.465  29.954  0.00  0.00    +0.160 C 
BRANCH  21  23
ATOM     22  C   LEU A   2      -9.750  25.568  29.809  0.00  0.00    +0.241 C 
ATOM     23  N   ASP A   3     -10.129  24.585  30.587  0.00  0.00    -0.297 N 
ATOM     24  H   ASP A   3      -9.963  24.609  31.613  0.00  0.00    +0.150 HD
ATOM     25  O   LEU A   2     -10.011  25.631  28.614  0.00  0.00    -0.273 OA
BRANCH  22  26
ATOM     26  CA  LEU A   2      -8.951  26.625  30.483  0.00  0.00    +0.149 C 
BRANCH  26  29
ATOM     27  C   LEU A   1      -6.738  25.725  30.277  0.00  0.00    +0.238 C 
ATOM     28  O   LEU A   1      -6.887  25.041  31.280  0.00  0.00    -0.274 OA
ATOM     29  N   LEU A   2      -7.634  26.613  29.852  0.00  0.00    -0.297 N 
ATOM     30  H   LEU A   2      -7.402  27.281  29.090  0.00  0.00    +0.150 HD
BRANCH  27  31
ATOM     31  CA  LEU A   1      -5.461  25.598  29.498  0.00  0.00    +0.145 C 
BRANCH  31  32
ATOM     32  N   LEU A   1      -4.432  25.556  30.513  0.00  0.00    -0.238 NA
ATOM     33  H   LEU A   1      -4.191  24.664  30.990  0.00  0.00    +0.142 HD
ENDBRANCH  31  32
BRANCH  31  34
ATOM     34  CB  LEU A   1      -5.327  24.254  28.773  0.00  0.00    +0.026 C 
BRANCH  34  35
ATOM     35  CG  LEU A   1      -6.058  23.997  27.449  0.00  0.00    +0.002 C 
ATOM     36  CD2 LEU A   1      -5.879  22.531  27.033  0.00  0.00    +0.000 C 
ATOM     37  CD1 LEU A   1      -5.548  24.943  26.364  0.00  0.00    +0.000 C 
ENDBRANCH  34  35
ENDBRANCH  31  34
ENDBRANCH  27  31
ENDBRANCH  26  29
BRANCH  26  38
ATOM     38  CB  LEU A   2      -9.784  27.899  30.249  0.00  0.00    +0.029 C 
BRANCH  38  39
ATOM     39  CG  LEU A   2      -9.355  29.234  30.850  0.00  0.00    +0.002 C 
ATOM     40  CD2 LEU A   2      -8.802  29.041  32.249  0.00  0.00    +0.000 C 
ATOM     41  CD1 LEU A   2      -8.384  29.950  29.927  0.00  0.00    +0.000 C 
ENDBRANCH  38  39
ENDBRANCH  26  38
ENDBRANCH  22  26
ENDBRANCH  21  23
BRANCH  21  42
ATOM     42  CB  ASP A   3      -9.774  22.334  30.072  0.00  0.00    +0.143 C 
BRANCH  42  43
ATOM     43  CG  ASP A   3     -10.262  21.023  29.516  0.00  0.00    +0.367 C 
ATOM     44  OD2 ASP A   3      -9.508  20.057  29.624  0.00  0.00    -0.246 OA
ATOM     45  OD1 ASP A   3     -11.378  20.959  28.992  0.00  0.00    -0.246 OA
ENDBRANCH  42  43
ENDBRANCH  21  42
ENDBRANCH  17  21
ENDBRANCH  16  19
BRANCH  16  46
ATOM     46  CB  THR A   4     -15.582  23.906  29.609  0.00  0.00    +0.137 C 
ATOM     47  CG2 THR A   4     -15.475  25.394  29.905  0.00  0.00    +0.034 C 
BRANCH  46  48
ATOM     48  OG1 THR A   4     -15.426  23.648  28.196  0.00  0.00    -0.382 OA
ATOM     49  HG1 THR A   4     -15.526  22.678  28.026  0.00  0.00    +0.210 HD
ENDBRANCH  46  48
ENDBRANCH  16  46
ENDBRANCH  12  16
ENDBRANCH  11  14
ENDBRANCH   7  11
ENDBRANCH   5   8
ENDBRANCH   1   5
BRANCH   2  50
ATOM     50  CA  ASP A   7     -13.582  18.147  36.050  0.00  0.00    +0.160 C 
BRANCH  50  51
ATOM     51  C   ASP A   7     -12.650  18.769  37.041  0.00  0.00    +0.241 C 
ATOM     52  O   ASP A   7     -12.995  19.703  37.741  0.00  0.00    -0.273 OA
ATOM     53  N   ASP A   8     -11.448  18.207  37.103  0.00  0.00    -0.297 N 
ATOM     54  H   ASP A   8     -11.187  17.437  36.454  0.00  0.00    +0.150 HD
BRANCH  53  55
ATOM     55  CA  ASP A   8     -10.501  18.695  38.103  0.00  0.00    +0.160 C 
BRANCH  55  56
ATOM     56  C   ASP A   8      -9.363  19.324  37.374  0.00  0.00    +0.241 C 
ATOM     57  N   THR A   9      -8.500  19.986  38.111  0.00  0.00    -0.295 N 
ATOM     58  H   THR A   9      -8.644  20.020  39.140  0.00  0.00    +0.150 HD
ATOM     59  O   ASP A   8      -9.292  19.183  36.171  0.00  0.00    -0.273 OA
BRANCH  57  60
ATOM     60  CA  THR A   9      -7.357  20.670  37.546  0.00  0.00    +0.176 C 
BRANCH  60  61
ATOM     61  C   THR A   9      -6.156  19.755  37.669  0.00  0.00    +0.243 C 
ATOM     62  O   THR A   9      -5.888  19.255  38.752  0.00  0.00    -0.273 OA
ATOM     63  N   VAL A  10      -5.433  19.511  36.578  0.00  0.00    -0.297 N 
ATOM     64  H   VAL A  10      -5.701  19.899  35.651  0.00  0.00    +0.150 HD
BRANCH  63  65
ATOM     65  CA  VAL A  10      -4.242  18.671  36.739  0.00  0.00    +0.149 C 
BRANCH  65  66
ATOM     66  C   VAL A  10      -3.028  19.313  36.128  0.00  0.00    +0.241 C 
ATOM     67  N   LEU A  11      -1.971  19.318  36.927  0.00  0.00    -0.298 N 
ATOM     68  H   LEU A  11      -1.988  18.754  37.801  0.00  0.00    +0.150 HD
ATOM     69  O   VAL A  10      -3.069  19.827  35.015  0.00  0.00    -0.273 OA
BRANCH  67  70
ATOM     70  CA  LEU A  11      -0.785  20.100  36.602  0.00  0.00    +0.137 C 
BRANCH  70  71
ATOM     71  C   LEU A  11       0.416  19.203  36.500  0.00  0.00    +0.227 C 
ATOM     72  O   LEU A  11       0.501  18.183  37.176  0.00  0.00    -0.286 OA
ENDBRANCH  70  71
BRANCH  70  73
ATOM     73  CB  LEU A  11      -0.572  21.093  37.748  0.00  0.00    +0.028 C 
BRANCH  73  74
ATOM     74  CG  LEU A  11      -1.747  22.047  37.962  0.00  0.00    +0.002 C 
ATOM     75  CD2 LEU A  11      -1.865  22.417  39.432  0.00  0.00    +0.000 C 
ATOM     76  CD1 LEU A  11      -1.624  23.267  37.056  0.00  0.00    +0.000 C 
ENDBRANCH  73  74
ENDBRANCH  70  73
ENDBRANCH  67  70
ENDBRANCH  65  66
BRANCH  65  77
ATOM     77  CB  VAL A  10      -4.462  17.267  36.163  0.00  0.00    +0.027 C 
ATOM     78  CG2 VAL A  10      -3.180  16.434  36.167  0.00  0.00    +0.002 C 
ATOM     79  CG1 VAL A  10      -5.103  17.336  34.791  0.00  0.00    +0.002 C 
ENDBRANCH  65  77
ENDBRANCH  63  65
ENDBRANCH  60  61
BRANCH  60  80
ATOM     80  CB  THR A   9      -7.204  21.910  38.442  0.00  0.00    +0.137 C 
ATOM     81  CG2 THR A   9      -5.940  22.720  38.183  0.00  0.00    +0.034 C 
BRANCH  80  82
ATOM     82  OG1 THR A   9      -8.370  22.744  38.300  0.00  0.00    -0.382 OA
ATOM     83  HG1 THR A   9      -9.174  22.234  38.572  0.00  0.00    +0.210 HD
ENDBRANCH  80  82
ENDBRANCH  60  80
ENDBRANCH  57  60
ENDBRANCH  55  56
BRANCH  55  84
ATOM     84  CB  ASP A   8      -9.906  17.543  38.907  0.00  0.00    +0.143 C 
BRANCH  84  85
ATOM     85  CG  ASP A   8     -10.935  16.865  39.757  0.00  0.00    +0.367 C 
ATOM     86  OD2 ASP A   8     -11.731  17.564  40.388  0.00  0.00    -0.246 OA
ATOM     87  OD1 ASP A   8     -10.927  15.641  39.796  0.00  0.00    -0.246 OA
ENDBRANCH  84  85
ENDBRANCH  55  84
ENDBRANCH  53  55
ENDBRANCH  50  51
BRANCH  50  88
ATOM     88  CB  ASP A   7     -14.128  16.865  36.712  0.00  0.00    +0.143 C 
BRANCH  88  89
ATOM     89  CG  ASP A   7     -15.088  16.015  35.880  0.00  0.00    +0.367 C 
ATOM     90  OD2 ASP A   7     -14.990  14.796  35.989  0.00  0.00    -0.246 OA
ATOM     91  OD1 ASP A   7     -15.928  16.530  35.134  0.00  0.00    -0.246 OA
ENDBRANCH  88  89
ENDBRANCH  50  88
ENDBRANCH   2  50
TORSDOF 39
REMARK  Name = ../refined-set-2016/1qbu/1qbu_pocket.pdb
REMARK  210 active torsions:
REMARK  status: ('A' for Active; 'I' for Inactive)
REMARK    1  A    between atoms: _1  and  _3
REMARK    2  A    between atoms: _3  and  _4
REMARK    3  A    between atoms: _3  and  _6
REMARK    4  A    between atoms: _6  and  _7
REMARK    5  A    between atoms: _7  and  _8
REMARK    6  A    between atoms: _8  and  _9
REMARK    7  A    between atoms: _18  and  _20
REMARK    8  A    between atoms: _20  and  _21
REMARK    9  A    between atoms: _20  and  _23
REMARK   10  A    between atoms: _23  and  _24
REMARK   11  A    between atoms: _27  and  _29
REMARK   12  A    between atoms: _29  and  _30
REMARK   13  A    between atoms: _29  and  _32
REMARK   14  A    between atoms: _32  and  _33
REMARK   15  A    between atoms: _36  and  _38
REMARK   16  A    between atoms: _38  and  _39
REMARK   17  A    between atoms: _38  and  _41
REMARK   18  A    between atoms: _41  and  _42
REMARK   19  A    between atoms: _45  and  _47
REMARK   20  A    between atoms: _47  and  _48
REMARK   21  A    between atoms: _47  and  _50
REMARK   22  A    between atoms: _50  and  _51
REMARK   23  A    between atoms: _54  and  _56
REMARK   24  A    between atoms: _56  and  _57
REMARK   25  A    between atoms: _59  and  _61
REMARK   26  A    between atoms: _61  and  _62
REMARK   27  A    between atoms: _65  and  _67
REMARK   28  A    between atoms: _67  and  _68
REMARK   29  A    between atoms: _67  and  _70
REMARK   30  A    between atoms: _70  and  _71
REMARK   31  A    between atoms: _74  and  _76
REMARK   32  A    between atoms: _76  and  _77
REMARK   33  A    between atoms: _76  and  _79
REMARK   34  A    between atoms: _79  and  _80
REMARK   35  A    between atoms: _83  and  _85
REMARK   36  A    between atoms: _85  and  _86
REMARK   37  A    between atoms: _85  and  _88
REMARK   38  A    between atoms: _88  and  _89
REMARK   39  A    between atoms: _92  and  _94
REMARK   40  A    between atoms: _94  and  _95
REMARK   41  A    between atoms: _94  and  _97
REMARK   42  A    between atoms: _100  and  _102
REMARK   43  A    between atoms: _102  and  _103
REMARK   44  A    between atoms: _102  and  _105
REMARK   45  A    between atoms: _105  and  _106
REMARK   46  A    between atoms: _109  and  _111
REMARK   47  A    between atoms: _111  and  _112
REMARK   48  A    between atoms: _111  and  _114
REMARK   49  A    between atoms: _114  and  _115
REMARK   50  A    between atoms: _115  and  _116
REMARK   51  A    between atoms: _116  and  _117
REMARK   52  A    between atoms: _117  and  _118
REMARK   53  A    between atoms: _122  and  _124
REMARK   54  A    between atoms: _124  and  _125
REMARK   55  A    between atoms: _124  and  _127
REMARK   56  A    between atoms: _127  and  _128
REMARK   57  A    between atoms: _128  and  _129
REMARK   58  A    between atoms: _131  and  _133
REMARK   59  A    between atoms: _133  and  _134
REMARK   60  A    between atoms: _133  and  _136
REMARK   61  A    between atoms: _136  and  _137
REMARK   62  A    between atoms: _140  and  _142
REMARK   63  A    between atoms: _142  and  _143
REMARK   64  A    between atoms: _145  and  _147
REMARK   65  A    between atoms: _147  and  _148
REMARK   66  A    between atoms: _150  and  _152
REMARK   67  A    between atoms: _152  and  _153
REMARK   68  A    between atoms: _152  and  _155
REMARK   69  A    between atoms: _155  and  _156
REMARK   70  A    between atoms: _159  and  _161
REMARK   71  A    between atoms: _161  and  _162
REMARK   72  A    between atoms: _164  and  _166
REMARK   73  A    between atoms: _166  and  _167
REMARK   74  A    between atoms: _169  and  _171
REMARK   75  A    between atoms: _171  and  _172
REMARK   76  A    between atoms: _171  and  _174
REMARK   77  A    between atoms: _174  and  _175
REMARK   78  A    between atoms: _181  and  _183
REMARK   79  A    between atoms: _183  and  _184
REMARK   80  A    between atoms: _183  and  _186
REMARK   81  A    between atoms: _186  and  _187
REMARK   82  A    between atoms: _190  and  _192
REMARK   83  A    between atoms: _192  and  _193
REMARK   84  A    between atoms: _192  and  _195
REMARK   85  A    between atoms: _195  and  _196
REMARK   86  A    between atoms: _199  and  _201
REMARK   87  A    between atoms: _201  and  _202
REMARK   88  A    between atoms: _201  and  _204
REMARK   89  A    between atoms: _204  and  _205
REMARK   90  A    between atoms: _209  and  _210
REMARK   91  A    between atoms: _215  and  _217
REMARK   92  A    between atoms: _217  and  _218
REMARK   93  A    between atoms: _217  and  _220
REMARK   94  A    between atoms: _223  and  _225
REMARK   95  A    between atoms: _225  and  _226
REMARK   96  A    between atoms: _225  and  _228
REMARK   97  A    between atoms: _228  and  _229
REMARK   98  A    between atoms: _234  and  _236
REMARK   99  A    between atoms: _236  and  _237
REMARK  100  A    between atoms: _236  and  _239
REMARK  101  A    between atoms: _239  and  _240
REMARK  102  A    between atoms: _243  and  _245
REMARK  103  A    between atoms: _245  and  _246
REMARK  104  A    between atoms: _245  and  _248
REMARK  105  A    between atoms: _248  and  _249
REMARK  106  A    between atoms: _252  and  _254
REMARK  107  A    between atoms: _254  and  _255
REMARK  108  A    between atoms: _257  and  _259
REMARK  109  A    between atoms: _259  and  _260
REMARK  110  A    between atoms: _259  and  _262
REMARK  111  A    between atoms: _262  and  _263
REMARK  112  A    between atoms: _263  and  _264
REMARK  113  A    between atoms: _264  and  _265
REMARK  114  A    between atoms: _274  and  _276
REMARK  115  A    between atoms: _276  and  _277
REMARK  116  A    between atoms: _276  and  _279
REMARK  117  A    between atoms: _279  and  _280
REMARK  118  A    between atoms: _285  and  _287
REMARK  119  A    between atoms: _287  and  _288
REMARK  120  A    between atoms: _287  and  _290
REMARK  121  A    between atoms: _290  and  _291
REMARK  122  A    between atoms: _291  and  _292
REMARK  123  A    between atoms: _292  and  _293
REMARK  124  A    between atoms: _302  and  _304
REMARK  125  A    between atoms: _304  and  _305
REMARK  126  A    between atoms: _304  and  _307
REMARK  127  A    between atoms: _307  and  _308
REMARK  128  A    between atoms: _311  and  _313
REMARK  129  A    between atoms: _313  and  _314
REMARK  130  A    between atoms: _313  and  _316
REMARK  131  A    between atoms: _316  and  _317
REMARK  132  A    between atoms: _320  and  _322
REMARK  133  A    between atoms: _322  and  _323
REMARK  134  A    between atoms: _322  and  _325
REMARK  135  A    between atoms: _325  and  _326
REMARK  136  A    between atoms: _329  and  _331
REMARK  137  A    between atoms: _331  and  _332
REMARK  138  A    between atoms: _331  and  _334
REMARK  139  A    between atoms: _334  and  _335
REMARK  140  A    between atoms: _338  and  _340
REMARK  141  A    between atoms: _340  and  _341
REMARK  142  A    between atoms: _343  and  _345
REMARK  143  A    between atoms: _345  and  _346
REMARK  144  A    between atoms: _349  and  _351
REMARK  145  A    between atoms: _351  and  _352
REMARK  146  A    between atoms: _351  and  _354
REMARK  147  A    between atoms: _354  and  _355
REMARK  148  A    between atoms: _358  and  _360
REMARK  149  A    between atoms: _360  and  _361
REMARK  150  A    between atoms: _360  and  _363
REMARK  151  A    between atoms: _363  and  _364
REMARK  152  A    between atoms: _367  and  _369
REMARK  153  A    between atoms: _369  and  _370
REMARK  154  A    between atoms: _369  and  _372
REMARK  155  A    between atoms: _372  and  _373
REMARK  156  A    between atoms: _376  and  _378
REMARK  157  A    between atoms: _378  and  _379
REMARK  158  A    between atoms: _378  and  _381
REMARK  159  A    between atoms: _384  and  _386
REMARK  160  A    between atoms: _386  and  _387
REMARK  161  A    between atoms: _386  and  _389
REMARK  162  A    between atoms: _389  and  _390
REMARK  163  A    between atoms: _393  and  _395
REMARK  164  A    between atoms: _395  and  _396
REMARK  165  A    between atoms: _398  and  _400
REMARK  166  A    between atoms: _400  and  _401
REMARK  167  A    between atoms: _403  and  _405
REMARK  168  A    between atoms: _405  and  _406
REMARK  169  A    between atoms: _405  and  _408
REMARK  170  A    between atoms: _408  and  _409
REMARK  171  A    between atoms: _412  and  _414
REMARK  172  A    between atoms: _414  and  _415
REMARK  173  A    between atoms: _417  and  _419
REMARK  174  A    between atoms: _419  and  _420
REMARK  175  A    between atoms: _422  and  _424
REMARK  176  A    between atoms: _424  and  _425
REMARK  177  A    between atoms: _424  and  _427
REMARK  178  A    between atoms: _427  and  _428
REMARK  179  A    between atoms: _431  and  _433
REMARK  180  A    between atoms: _433  and  _434
REMARK  181  A    between atoms: _433  and  _436
REMARK  182  A    between atoms: _436  and  _437
REMARK  183  A    between atoms: _440  and  _442
REMARK  184  A    between atoms: _442  and  _443
REMARK  185  A    between atoms: _442  and  _445
REMARK  186  A    between atoms: _445  and  _446
REMARK  187  A    between atoms: _450  and  _451
REMARK  188  A    between atoms: _456  and  _458
REMARK  189  A    between atoms: _458  and  _459
REMARK  190  A    between atoms: _458  and  _461
REMARK  191  A    between atoms: _464  and  _466
REMARK  192  A    between atoms: _466  and  _467
REMARK  193  A    between atoms: _466  and  _469
REMARK  194  A    between atoms: _469  and  _470
REMARK  195  A    between atoms: _475  and  _477
REMARK  196  A    between atoms: _477  and  _478
REMARK  197  A    between atoms: _477  and  _480
REMARK  198  A    between atoms: _480  and  _481
REMARK  199  A    between atoms: _484  and  _486
REMARK  200  A    between atoms: _486  and  _487
REMARK  201  A    between atoms: _486  and  _489
REMARK  202  A    between atoms: _489  and  _490
REMARK  203  A    between atoms: _493  and  _495
REMARK  204  A    between atoms: _495  and  _496
REMARK  205  A    between atoms: _498  and  _500
REMARK  206  A    between atoms: _500  and  _501
REMARK  207  A    between atoms: _500  and  _503
REMARK  208  A    between atoms: _503  and  _504
REMARK  209  A    between atoms: _504  and  _505
REMARK  210  A    between atoms: _505  and  _506
REMARK                            x       y       z     vdW  Elec       q    Type
REMARK                         _______ _______ _______ _____ _____    ______ ____
ROOT
ATOM      1  C   GLY A   5      -8.718   9.894  28.972  0.00  0.00    +0.243 C 
ATOM      2  O   GLY A   5      -9.187   8.775  29.034  0.00  0.00    -0.273 OA
ATOM      3  N   ILE A   6      -8.284  10.433  27.857  0.00  0.00    -0.297 N 
ATOM      4  H   ILE A   6      -7.902  11.400  27.852  0.00  0.00    +0.150 HD
ENDROOT
BRANCH   3   5
ATOM      5  CA  ILE A   6      -8.345   9.661  26.636  0.00  0.00    +0.149 C 
BRANCH   5   6
ATOM      6  C   ILE A   6      -7.009   8.996  26.468  0.00  0.00    +0.241 C 
ATOM      7  O   ILE A   6      -5.954   9.593  26.568  0.00  0.00    -0.273 OA
ATOM      8  N   GLY A   7      -7.076   7.700  26.243  0.00  0.00    -0.295 N 
ATOM      9  H   GLY A   7      -7.979   7.223  26.046  0.00  0.00    +0.150 HD
BRANCH   8  10
ATOM     10  CA  GLY A   7      -5.814   6.970  26.285  0.00  0.00    +0.176 C 
BRANCH  10  11
ATOM     11  C   GLY A   7      -5.660   6.090  27.511  0.00  0.00    +0.243 C 
ATOM     12  N   GLY A   8      -6.177   6.563  28.625  0.00  0.00    -0.295 N 
ATOM     13  H   GLY A   8      -6.682   7.470  28.679  0.00  0.00    +0.150 HD
ATOM     14  O   GLY A   7      -5.115   4.997  27.471  0.00  0.00    -0.273 OA
BRANCH  12  15
ATOM     15  CA  GLY A   8      -5.975   5.700  29.765  0.00  0.00    +0.176 C 
BRANCH  15  16
ATOM     16  C   GLY A   8      -6.078   6.496  31.012  0.00  0.00    +0.243 C 
ATOM     17  N   PHE A   9      -5.465   5.966  32.029  0.00  0.00    -0.297 N 
ATOM     18  H   PHE A   9      -4.919   5.085  31.946  0.00  0.00    +0.150 HD
ATOM     19  O   GLY A   8      -6.718   7.534  31.072  0.00  0.00    -0.273 OA
BRANCH  17  20
ATOM     20  CA  PHE A   9      -5.589   6.672  33.273  0.00  0.00    +0.153 C 
BRANCH  20  21
ATOM     21  C   PHE A   9      -4.198   7.139  33.610  0.00  0.00    +0.241 C 
ATOM     22  N   ILE A  10      -4.141   8.205  34.388  0.00  0.00    -0.298 N 
ATOM     23  H   ILE A  10      -4.983   8.790  34.559  0.00  0.00    +0.150 HD
ATOM     24  O   PHE A   9      -3.208   6.563  33.179  0.00  0.00    -0.273 OA
BRANCH  22  25
ATOM     25  CA  ILE A  10      -2.860   8.534  34.998  0.00  0.00    +0.137 C 
BRANCH  25  26
ATOM     26  C   ILE A  10      -3.026   8.603  36.510  0.00  0.00    +0.227 C 
ATOM     27  O   ILE A  10      -4.116   8.501  37.060  0.00  0.00    -0.286 OA
ENDBRANCH  25  26
BRANCH  25  28
ATOM     28  CB  ILE A  10      -2.277   9.848  34.445  0.00  0.00    +0.026 C 
ATOM     29  CG2 ILE A  10      -2.213   9.792  32.912  0.00  0.00    +0.002 C 
BRANCH  28  30
ATOM     30  CG1 ILE A  10      -2.983  11.124  34.929  0.00  0.00    +0.002 C 
ATOM     31  CD1 ILE A  10      -2.223  12.403  34.612  0.00  0.00    +0.000 C 
ENDBRANCH  28  30
ENDBRANCH  25  28
ENDBRANCH  22  25
ENDBRANCH  20  21
BRANCH  20  32
ATOM     32  CB  PHE A   9      -6.090   5.678  34.315  0.00  0.00    +0.055 C 
BRANCH  32  33
ATOM     33  CG  PHE A   9      -7.610   5.565  34.390  0.00  0.00    -0.020 A 
ATOM     34  CD2 PHE A   9      -8.269   5.969  35.581  0.00  0.00    -0.004 A 
ATOM     35  CE2 PHE A   9      -9.667   5.861  35.701  0.00  0.00    -0.000 A 
ATOM     36  CZ  PHE A   9     -10.412   5.340  34.620  0.00  0.00    -0.000 A 
ATOM     37  CE1 PHE A   9      -9.770   4.931  33.430  0.00  0.00    -0.000 A 
ATOM     38  CD1 PHE A   9      -8.364   5.046  33.314  0.00  0.00    -0.004 A 
ENDBRANCH  32  33
ENDBRANCH  20  32
ENDBRANCH  17  20
ENDBRANCH  15  16
ENDBRANCH  12  15
ENDBRANCH  10  11
ENDBRANCH   8  10
ENDBRANCH   5   6
BRANCH   5  39
ATOM     39  CB  ILE A   6      -8.681  10.627  25.503  0.00  0.00    +0.027 C 
ATOM     40  CG2 ILE A   6      -7.733  10.668  24.297  0.00  0.00    +0.002 C 
BRANCH  39  41
ATOM     41  CG1 ILE A   6     -10.077  10.315  25.005  0.00  0.00    +0.002 C 
ATOM     42  CD1 ILE A   6     -10.549  11.331  23.965  0.00  0.00    +0.000 C 
ENDBRANCH  39  41
ENDBRANCH   5  39
ENDBRANCH   3   5
BRANCH   1  43
ATOM     43  CA  GLY A   5      -8.586  10.733  30.193  0.00  0.00    +0.176 C 
BRANCH  43  46
ATOM     44  C   GLY A   4      -9.289  10.154  32.447  0.00  0.00    +0.243 C 
ATOM     45  O   GLY A   4      -9.830  11.223  32.676  0.00  0.00    -0.273 OA
ATOM     46  N   GLY A   5      -8.716   9.821  31.312  0.00  0.00    -0.295 N 
ATOM     47  H   GLY A   5      -8.338   8.857  31.212  0.00  0.00    +0.150 HD
BRANCH  44  48
ATOM     48  CA  GLY A   4      -9.195   9.095  33.497  0.00  0.00    +0.176 C 
BRANCH  48  51
ATOM     49  C   ILE A   3      -7.828   9.554  35.411  0.00  0.00    +0.241 C 
ATOM     50  O   ILE A   3      -6.870   8.954  34.939  0.00  0.00    -0.273 OA
ATOM     51  N   GLY A   4      -8.994   9.712  34.792  0.00  0.00    -0.295 N 
ATOM     52  H   GLY A   4      -9.752  10.272  35.232  0.00  0.00    +0.150 HD
BRANCH  49  53
ATOM     53  CA  ILE A   3      -7.740  10.171  36.773  0.00  0.00    +0.149 C 
BRANCH  53  56
ATOM     54  C   MET A   2      -6.928   8.984  38.707  0.00  0.00    +0.241 C 
ATOM     55  O   MET A   2      -8.062   9.014  39.166  0.00  0.00    -0.273 OA
ATOM     56  N   ILE A   3      -6.628   9.582  37.549  0.00  0.00    -0.297 N 
ATOM     57  H   ILE A   3      -5.647   9.631  37.207  0.00  0.00    +0.150 HD
BRANCH  54  58
ATOM     58  CA  MET A   2      -5.812   8.264  39.475  0.00  0.00    +0.149 C 
BRANCH  58  61
ATOM     59  C   LYS A   1      -4.908   8.876  41.685  0.00  0.00    +0.238 C 
ATOM     60  O   LYS A   1      -3.767   8.969  41.255  0.00  0.00    -0.274 OA
ATOM     61  N   MET A   2      -5.942   8.479  40.924  0.00  0.00    -0.297 N 
ATOM     62  H   MET A   2      -6.865   8.318  41.375  0.00  0.00    +0.150 HD
BRANCH  59  63
ATOM     63  CA  LYS A   1      -5.183   9.216  43.144  0.00  0.00    +0.145 C 
BRANCH  63  64
ATOM     64  N   LYS A   1      -3.935   9.381  43.882  0.00  0.00    -0.238 NA
ATOM     65  H   LYS A   1      -3.072   9.727  43.416  0.00  0.00    +0.142 HD
ENDBRANCH  63  64
BRANCH  63  66
ATOM     66  CB  LYS A   1      -5.952  10.534  43.283  0.00  0.00    +0.026 C 
BRANCH  66  67
ATOM     67  CG  LYS A   1      -7.451  10.392  43.022  0.00  0.00    -0.000 C 
BRANCH  67  68
ATOM     68  CD  LYS A   1      -8.127  11.747  42.844  0.00  0.00    -0.024 C 
BRANCH  68  69
ATOM     69  CE  LYS A   1      -9.532  11.614  42.269  0.00  0.00    -0.086 C 
BRANCH  69  70
ATOM     70  NZ  LYS A   1     -10.365  10.865  43.219  0.00  0.00    +0.380 N 
ATOM     71  HZ1 LYS A   1     -10.401  11.376  44.124  0.00  0.00    -0.089 HD
ATOM     72  HZ2 LYS A   1      -9.955   9.921  43.369  0.00  0.00    -0.089 HD
ATOM     73  HZ3 LYS A   1     -11.327  10.769  42.835  0.00  0.00    -0.089 HD
ENDBRANCH  69  70
ENDBRANCH  68  69
ENDBRANCH  67  68
ENDBRANCH  66  67
ENDBRANCH  63  66
ENDBRANCH  59  63
ENDBRANCH  58  61
BRANCH  58  74
ATOM     74  CB  MET A   2      -5.907   6.765  39.216  0.00  0.00    +0.041 C 
BRANCH  74  75
ATOM     75  CG  MET A   2      -4.810   6.006  39.948  0.00  0.00    +0.060 C 
BRANCH  75  76
ATOM     76  SD  MET A   2      -5.413   4.473  40.668  0.00  0.00    -0.139 S 
ATOM     77  CE  MET A   2      -4.815   4.662  42.361  0.00  0.00    +0.069 C 
ENDBRANCH  75  76
ENDBRANCH  74  75
ENDBRANCH  58  74
ENDBRANCH  54  58
ENDBRANCH  53  56
BRANCH  53  78
ATOM     78  CB  ILE A   3      -7.653  11.695  36.576  0.00  0.00    +0.027 C 
ATOM     79  CG2 ILE A   3      -7.999  12.424  37.865  0.00  0.00    +0.002 C 
BRANCH  78  80
ATOM     80  CG1 ILE A   3      -6.324  12.176  36.007  0.00  0.00    +0.002 C 
ATOM     81  CD1 ILE A   3      -6.216  13.692  35.867  0.00  0.00    +0.000 C 
ENDBRANCH  78  80
ENDBRANCH  53  78
ENDBRANCH  49  53
ENDBRANCH  48  51
ENDBRANCH  44  48
ENDBRANCH  43  46
ENDBRANCH   1  43
TORSDOF 36
REMARK  Name = ../refined-set-2016/1qbu/1qbu_pocket.pdb
REMARK  210 active torsions:
REMARK  status: ('A' for Active; 'I' for Inactive)
REMARK    1  A    between atoms: _1  and  _3
REMARK    2  A    between atoms: _3  and  _4
REMARK    3  A    between atoms: _3  and  _6
REMARK    4  A    between atoms: _6  and  _7
REMARK    5  A    between atoms: _7  and  _8
REMARK    6  A    between atoms: _8  and  _9
REMARK    7  A    between atoms: _18  and  _20
REMARK    8  A    between atoms: _20  and  _21
REMARK    9  A    between atoms: _20  and  _23
REMARK   10  A    between atoms: _23  and  _24
REMARK   11  A    between atoms: _27  and  _29
REMARK   12  A    between atoms: _29  and  _30
REMARK   13  A    between atoms: _29  and  _32
REMARK   14  A    between atoms: _32  and  _33
REMARK   15  A    between atoms: _36  and  _38
REMARK   16  A    between atoms: _38  and  _39
REMARK   17  A    between atoms: _38  and  _41
REMARK   18  A    between atoms: _41  and  _42
REMARK   19  A    between atoms: _45  and  _47
REMARK   20  A    between atoms: _47  and  _48
REMARK   21  A    between atoms: _47  and  _50
REMARK   22  A    between atoms: _50  and  _51
REMARK   23  A    between atoms: _54  and  _56
REMARK   24  A    between atoms: _56  and  _57
REMARK   25  A    between atoms: _59  and  _61
REMARK   26  A    between atoms: _61  and  _62
REMARK   27  A    between atoms: _65  and  _67
REMARK   28  A    between atoms: _67  and  _68
REMARK   29  A    between atoms: _67  and  _70
REMARK   30  A    between atoms: _70  and  _71
REMARK   31  A    between atoms: _74  and  _76
REMARK   32  A    between atoms: _76  and  _77
REMARK   33  A    between atoms: _76  and  _79
REMARK   34  A    between atoms: _79  and  _80
REMARK   35  A    between atoms: _83  and  _85
REMARK   36  A    between atoms: _85  and  _86
REMARK   37  A    between atoms: _85  and  _88
REMARK   38  A    between atoms: _88  and  _89
REMARK   39  A    between atoms: _92  and  _94
REMARK   40  A    between atoms: _94  and  _95
REMARK   41  A    between atoms: _94  and  _97
REMARK   42  A    between atoms: _100  and  _102
REMARK   43  A    between atoms: _102  and  _103
REMARK   44  A    between atoms: _102  and  _105
REMARK   45  A    between atoms: _105  and  _106
REMARK   46  A    between atoms: _109  and  _111
REMARK   47  A    between atoms: _111  and  _112
REMARK   48  A    between atoms: _111  and  _114
REMARK   49  A    between atoms: _114  and  _115
REMARK   50  A    between atoms: _115  and  _116
REMARK   51  A    between atoms: _116  and  _117
REMARK   52  A    between atoms: _117  and  _118
REMARK   53  A    between atoms: _122  and  _124
REMARK   54  A    between atoms: _124  and  _125
REMARK   55  A    between atoms: _124  and  _127
REMARK   56  A    between atoms: _127  and  _128
REMARK   57  A    between atoms: _128  and  _129
REMARK   58  A    between atoms: _131  and  _133
REMARK   59  A    between atoms: _133  and  _134
REMARK   60  A    between atoms: _133  and  _136
REMARK   61  A    between atoms: _136  and  _137
REMARK   62  A    between atoms: _140  and  _142
REMARK   63  A    between atoms: _142  and  _143
REMARK   64  A    between atoms: _145  and  _147
REMARK   65  A    between atoms: _147  and  _148
REMARK   66  A    between atoms: _150  and  _152
REMARK   67  A    between atoms: _152  and  _153
REMARK   68  A    between atoms: _152  and  _155
REMARK   69  A    between atoms: _155  and  _156
REMARK   70  A    between atoms: _159  and  _161
REMARK   71  A    between atoms: _161  and  _162
REMARK   72  A    between atoms: _164  and  _166
REMARK   73  A    between atoms: _166  and  _167
REMARK   74  A    between atoms: _169  and  _171
REMARK   75  A    between atoms: _171  and  _172
REMARK   76  A    between atoms: _171  and  _174
REMARK   77  A    between atoms: _174  and  _175
REMARK   78  A    between atoms: _181  and  _183
REMARK   79  A    between atoms: _183  and  _184
REMARK   80  A    between atoms: _183  and  _186
REMARK   81  A    between atoms: _186  and  _187
REMARK   82  A    between atoms: _190  and  _192
REMARK   83  A    between atoms: _192  and  _193
REMARK   84  A    between atoms: _192  and  _195
REMARK   85  A    between atoms: _195  and  _196
REMARK   86  A    between atoms: _199  and  _201
REMARK   87  A    between atoms: _201  and  _202
REMARK   88  A    between atoms: _201  and  _204
REMARK   89  A    between atoms: _204  and  _205
REMARK   90  A    between atoms: _209  and  _210
REMARK   91  A    between atoms: _215  and  _217
REMARK   92  A    between atoms: _217  and  _218
REMARK   93  A    between atoms: _217  and  _220
REMARK   94  A    between atoms: _223  and  _225
REMARK   95  A    between atoms: _225  and  _226
REMARK   96  A    between atoms: _225  and  _228
REMARK   97  A    between atoms: _228  and  _229
REMARK   98  A    between atoms: _234  and  _236
REMARK   99  A    between atoms: _236  and  _237
REMARK  100  A    between atoms: _236  and  _239
REMARK  101  A    between atoms: _239  and  _240
REMARK  102  A    between atoms: _243  and  _245
REMARK  103  A    between atoms: _245  and  _246
REMARK  104  A    between atoms: _245  and  _248
REMARK  105  A    between atoms: _248  and  _249
REMARK  106  A    between atoms: _252  and  _254
REMARK  107  A    between atoms: _254  and  _255
REMARK  108  A    between atoms: _257  and  _259
REMARK  109  A    between atoms: _259  and  _260
REMARK  110  A    between atoms: _259  and  _262
REMARK  111  A    between atoms: _262  and  _263
REMARK  112  A    between atoms: _263  and  _264
REMARK  113  A    between atoms: _264  and  _265
REMARK  114  A    between atoms: _274  and  _276
REMARK  115  A    between atoms: _276  and  _277
REMARK  116  A    between atoms: _276  and  _279
REMARK  117  A    between atoms: _279  and  _280
REMARK  118  A    between atoms: _285  and  _287
REMARK  119  A    between atoms: _287  and  _288
REMARK  120  A    between atoms: _287  and  _290
REMARK  121  A    between atoms: _290  and  _291
REMARK  122  A    between atoms: _291  and  _292
REMARK  123  A    between atoms: _292  and  _293
REMARK  124  A    between atoms: _302  and  _304
REMARK  125  A    between atoms: _304  and  _305
REMARK  126  A    between atoms: _304  and  _307
REMARK  127  A    between atoms: _307  and  _308
REMARK  128  A    between atoms: _311  and  _313
REMARK  129  A    between atoms: _313  and  _314
REMARK  130  A    between atoms: _313  and  _316
REMARK  131  A    between atoms: _316  and  _317
REMARK  132  A    between atoms: _320  and  _322
REMARK  133  A    between atoms: _322  and  _323
REMARK  134  A    between atoms: _322  and  _325
REMARK  135  A    between atoms: _325  and  _326
REMARK  136  A    between atoms: _329  and  _331
REMARK  137  A    between atoms: _331  and  _332
REMARK  138  A    between atoms: _331  and  _334
REMARK  139  A    between atoms: _334  and  _335
REMARK  140  A    between atoms: _338  and  _340
REMARK  141  A    between atoms: _340  and  _341
REMARK  142  A    between atoms: _343  and  _345
REMARK  143  A    between atoms: _345  and  _346
REMARK  144  A    between atoms: _349  and  _351
REMARK  145  A    between atoms: _351  and  _352
REMARK  146  A    between atoms: _351  and  _354
REMARK  147  A    between atoms: _354  and  _355
REMARK  148  A    between atoms: _358  and  _360
REMARK  149  A    between atoms: _360  and  _361
REMARK  150  A    between atoms: _360  and  _363
REMARK  151  A    between atoms: _363  and  _364
REMARK  152  A    between atoms: _367  and  _369
REMARK  153  A    between atoms: _369  and  _370
REMARK  154  A    between atoms: _369  and  _372
REMARK  155  A    between atoms: _372  and  _373
REMARK  156  A    between atoms: _376  and  _378
REMARK  157  A    between atoms: _378  and  _379
REMARK  158  A    between atoms: _378  and  _381
REMARK  159  A    between atoms: _384  and  _386
REMARK  160  A    between atoms: _386  and  _387
REMARK  161  A    between atoms: _386  and  _389
REMARK  162  A    between atoms: _389  and  _390
REMARK  163  A    between atoms: _393  and  _395
REMARK  164  A    between atoms: _395  and  _396
REMARK  165  A    between atoms: _398  and  _400
REMARK  166  A    between atoms: _400  and  _401
REMARK  167  A    between atoms: _403  and  _405
REMARK  168  A    between atoms: _405  and  _406
REMARK  169  A    between atoms: _405  and  _408
REMARK  170  A    between atoms: _408  and  _409
REMARK  171  A    between atoms: _412  and  _414
REMARK  172  A    between atoms: _414  and  _415
REMARK  173  A    between atoms: _417  and  _419
REMARK  174  A    between atoms: _419  and  _420
REMARK  175  A    between atoms: _422  and  _424
REMARK  176  A    between atoms: _424  and  _425
REMARK  177  A    between atoms: _424  and  _427
REMARK  178  A    between atoms: _427  and  _428
REMARK  179  A    between atoms: _431  and  _433
REMARK  180  A    between atoms: _433  and  _434
REMARK  181  A    between atoms: _433  and  _436
REMARK  182  A    between atoms: _436  and  _437
REMARK  183  A    between atoms: _440  and  _442
REMARK  184  A    between atoms: _442  and  _443
REMARK  185  A    between atoms: _442  and  _445
REMARK  186  A    between atoms: _445  and  _446
REMARK  187  A    between atoms: _450  and  _451
REMARK  188  A    between atoms: _456  and  _458
REMARK  189  A    between atoms: _458  and  _459
REMARK  190  A    between atoms: _458  and  _461
REMARK  191  A    between atoms: _464  and  _466
REMARK  192  A    between atoms: _466  and  _467
REMARK  193  A    between atoms: _466  and  _469
REMARK  194  A    between atoms: _469  and  _470
REMARK  195  A    between atoms: _475  and  _477
REMARK  196  A    between atoms: _477  and  _478
REMARK  197  A    between atoms: _477  and  _480
REMARK  198  A    between atoms: _480  and  _481
REMARK  199  A    between atoms: _484  and  _486
REMARK  200  A    between atoms: _486  and  _487
REMARK  201  A    between atoms: _486  and  _489
REMARK  202  A    between atoms: _489  and  _490
REMARK  203  A    between atoms: _493  and  _495
REMARK  204  A    between atoms: _495  and  _496
REMARK  205  A    between atoms: _498  and  _500
REMARK  206  A    between atoms: _500  and  _501
REMARK  207  A    between atoms: _500  and  _503
REMARK  208  A    between atoms: _503  and  _504
REMARK  209  A    between atoms: _504  and  _505
REMARK  210  A    between atoms: _505  and  _506
REMARK                            x       y       z     vdW  Elec       q    Type
REMARK                         _______ _______ _______ _____ _____    ______ ____
ROOT
ATOM      1  CA  LEU A   1      -3.859  17.175  41.089  0.00  0.00    +0.133 C 
ENDROOT
BRANCH   1   2
ATOM      2  N   LEU A   1      -4.423  18.516  41.224  0.00  0.00    -0.239 NA
ATOM      3  H   LEU A   1      -4.767  19.027  40.386  0.00  0.00    +0.142 HD
ENDBRANCH   1   2
BRANCH   1   4
ATOM      4  C   LEU A   1      -2.571  17.307  40.311  0.00  0.00    +0.224 C 
ATOM      5  O   LEU A   1      -2.517  17.861  39.224  0.00  0.00    -0.287 OA
ENDBRANCH   1   4
BRANCH   1   6
ATOM      6  CB  LEU A   1      -4.841  16.275  40.323  0.00  0.00    +0.025 C 
BRANCH   6   7
ATOM      7  CG  LEU A   1      -6.007  15.672  41.118  0.00  0.00    +0.002 C 
ATOM      8  CD2 LEU A   1      -6.913  16.694  41.798  0.00  0.00    +0.000 C 
ATOM      9  CD1 LEU A   1      -6.894  14.859  40.175  0.00  0.00    +0.000 C 
ENDBRANCH   6   7
ENDBRANCH   1   6
TORSDOF 4
REMARK  Name = ../refined-set-2016/1qbu/1qbu_pocket.pdb
REMARK  210 active torsions:
REMARK  status: ('A' for Active; 'I' for Inactive)
REMARK    1  A    between atoms: _1  and  _3
REMARK    2  A    between atoms: _3  and  _4
REMARK    3  A    between atoms: _3  and  _6
REMARK    4  A    between atoms: _6  and  _7
REMARK    5  A    between atoms: _7  and  _8
REMARK    6  A    between atoms: _8  and  _9
REMARK    7  A    between atoms: _18  and  _20
REMARK    8  A    between atoms: _20  and  _21
REMARK    9  A    between atoms: _20  and  _23
REMARK   10  A    between atoms: _23  and  _24
REMARK   11  A    between atoms: _27  and  _29
REMARK   12  A    between atoms: _29  and  _30
REMARK   13  A    between atoms: _29  and  _32
REMARK   14  A    between atoms: _32  and  _33
REMARK   15  A    between atoms: _36  and  _38
REMARK   16  A    between atoms: _38  and  _39
REMARK   17  A    between atoms: _38  and  _41
REMARK   18  A    between atoms: _41  and  _42
REMARK   19  A    between atoms: _45  and  _47
REMARK   20  A    between atoms: _47  and  _48
REMARK   21  A    between atoms: _47  and  _50
REMARK   22  A    between atoms: _50  and  _51
REMARK   23  A    between atoms: _54  and  _56
REMARK   24  A    between atoms: _56  and  _57
REMARK   25  A    between atoms: _59  and  _61
REMARK   26  A    between atoms: _61  and  _62
REMARK   27  A    between atoms: _65  and  _67
REMARK   28  A    between atoms: _67  and  _68
REMARK   29  A    between atoms: _67  and  _70
REMARK   30  A    between atoms: _70  and  _71
REMARK   31  A    between atoms: _74  and  _76
REMARK   32  A    between atoms: _76  and  _77
REMARK   33  A    between atoms: _76  and  _79
REMARK   34  A    between atoms: _79  and  _80
REMARK   35  A    between atoms: _83  and  _85
REMARK   36  A    between atoms: _85  and  _86
REMARK   37  A    between atoms: _85  and  _88
REMARK   38  A    between atoms: _88  and  _89
REMARK   39  A    between atoms: _92  and  _94
REMARK   40  A    between atoms: _94  and  _95
REMARK   41  A    between atoms: _94  and  _97
REMARK   42  A    between atoms: _100  and  _102
REMARK   43  A    between atoms: _102  and  _103
REMARK   44  A    between atoms: _102  and  _105
REMARK   45  A    between atoms: _105  and  _106
REMARK   46  A    between atoms: _109  and  _111
REMARK   47  A    between atoms: _111  and  _112
REMARK   48  A    between atoms: _111  and  _114
REMARK   49  A    between atoms: _114  and  _115
REMARK   50  A    between atoms: _115  and  _116
REMARK   51  A    between atoms: _116  and  _117
REMARK   52  A    between atoms: _117  and  _118
REMARK   53  A    between atoms: _122  and  _124
REMARK   54  A    between atoms: _124  and  _125
REMARK   55  A    between atoms: _124  and  _127
REMARK   56  A    between atoms: _127  and  _128
REMARK   57  A    between atoms: _128  and  _129
REMARK   58  A    between atoms: _131  and  _133
REMARK   59  A    between atoms: _133  and  _134
REMARK   60  A    between atoms: _133  and  _136
REMARK   61  A    between atoms: _136  and  _137
REMARK   62  A    between atoms: _140  and  _142
REMARK   63  A    between atoms: _142  and  _143
REMARK   64  A    between atoms: _145  and  _147
REMARK   65  A    between atoms: _147  and  _148
REMARK   66  A    between atoms: _150  and  _152
REMARK   67  A    between atoms: _152  and  _153
REMARK   68  A    between atoms: _152  and  _155
REMARK   69  A    between atoms: _155  and  _156
REMARK   70  A    between atoms: _159  and  _161
REMARK   71  A    between atoms: _161  and  _162
REMARK   72  A    between atoms: _164  and  _166
REMARK   73  A    between atoms: _166  and  _167
REMARK   74  A    between atoms: _169  and  _171
REMARK   75  A    between atoms: _171  and  _172
REMARK   76  A    between atoms: _171  and  _174
REMARK   77  A    between atoms: _174  and  _175
REMARK   78  A    between atoms: _181  and  _183
REMARK   79  A    between atoms: _183  and  _184
REMARK   80  A    between atoms: _183  and  _186
REMARK   81  A    between atoms: _186  and  _187
REMARK   82  A    between atoms: _190  and  _192
REMARK   83  A    between atoms: _192  and  _193
REMARK   84  A    between atoms: _192  and  _195
REMARK   85  A    between atoms: _195  and  _196
REMARK   86  A    between atoms: _199  and  _201
REMARK   87  A    between atoms: _201  and  _202
REMARK   88  A    between atoms: _201  and  _204
REMARK   89  A    between atoms: _204  and  _205
REMARK   90  A    between atoms: _209  and  _210
REMARK   91  A    between atoms: _215  and  _217
REMARK   92  A    between atoms: _217  and  _218
REMARK   93  A    between atoms: _217  and  _220
REMARK   94  A    between atoms: _223  and  _225
REMARK   95  A    between atoms: _225  and  _226
REMARK   96  A    between atoms: _225  and  _228
REMARK   97  A    between atoms: _228  and  _229
REMARK   98  A    between atoms: _234  and  _236
REMARK   99  A    between atoms: _236  and  _237
REMARK  100  A    between atoms: _236  and  _239
REMARK  101  A    between atoms: _239  and  _240
REMARK  102  A    between atoms: _243  and  _245
REMARK  103  A    between atoms: _245  and  _246
REMARK  104  A    between atoms: _245  and  _248
REMARK  105  A    between atoms: _248  and  _249
REMARK  106  A    between atoms: _252  and  _254
REMARK  107  A    between atoms: _254  and  _255
REMARK  108  A    between atoms: _257  and  _259
REMARK  109  A    between atoms: _259  and  _260
REMARK  110  A    between atoms: _259  and  _262
REMARK  111  A    between atoms: _262  and  _263
REMARK  112  A    between atoms: _263  and  _264
REMARK  113  A    between atoms: _264  and  _265
REMARK  114  A    between atoms: _274  and  _276
REMARK  115  A    between atoms: _276  and  _277
REMARK  116  A    between atoms: _276  and  _279
REMARK  117  A    between atoms: _279  and  _280
REMARK  118  A    between atoms: _285  and  _287
REMARK  119  A    between atoms: _287  and  _288
REMARK  120  A    between atoms: _287  and  _290
REMARK  121  A    between atoms: _290  and  _291
REMARK  122  A    between atoms: _291  and  _292
REMARK  123  A    between atoms: _292  and  _293
REMARK  124  A    between atoms: _302  and  _304
REMARK  125  A    between atoms: _304  and  _305
REMARK  126  A    between atoms: _304  and  _307
REMARK  127  A    between atoms: _307  and  _308
REMARK  128  A    between atoms: _311  and  _313
REMARK  129  A    between atoms: _313  and  _314
REMARK  130  A    between atoms: _313  and  _316
REMARK  131  A    between atoms: _316  and  _317
REMARK  132  A    between atoms: _320  and  _322
REMARK  133  A    between atoms: _322  and  _323
REMARK  134  A    between atoms: _322  and  _325
REMARK  135  A    between atoms: _325  and  _326
REMARK  136  A    between atoms: _329  and  _331
REMARK  137  A    between atoms: _331  and  _332
REMARK  138  A    between atoms: _331  and  _334
REMARK  139  A    between atoms: _334  and  _335
REMARK  140  A    between atoms: _338  and  _340
REMARK  141  A    between atoms: _340  and  _341
REMARK  142  A    between atoms: _343  and  _345
REMARK  143  A    between atoms: _345  and  _346
REMARK  144  A    between atoms: _349  and  _351
REMARK  145  A    between atoms: _351  and  _352
REMARK  146  A    between atoms: _351  and  _354
REMARK  147  A    between atoms: _354  and  _355
REMARK  148  A    between atoms: _358  and  _360
REMARK  149  A    between atoms: _360  and  _361
REMARK  150  A    between atoms: _360  and  _363
REMARK  151  A    between atoms: _363  and  _364
REMARK  152  A    between atoms: _367  and  _369
REMARK  153  A    between atoms: _369  and  _370
REMARK  154  A    between atoms: _369  and  _372
REMARK  155  A    between atoms: _372  and  _373
REMARK  156  A    between atoms: _376  and  _378
REMARK  157  A    between atoms: _378  and  _379
REMARK  158  A    between atoms: _378  and  _381
REMARK  159  A    between atoms: _384  and  _386
REMARK  160  A    between atoms: _386  and  _387
REMARK  161  A    between atoms: _386  and  _389
REMARK  162  A    between atoms: _389  and  _390
REMARK  163  A    between atoms: _393  and  _395
REMARK  164  A    between atoms: _395  and  _396
REMARK  165  A    between atoms: _398  and  _400
REMARK  166  A    between atoms: _400  and  _401
REMARK  167  A    between atoms: _403  and  _405
REMARK  168  A    between atoms: _405  and  _406
REMARK  169  A    between atoms: _405  and  _408
REMARK  170  A    between atoms: _408  and  _409
REMARK  171  A    between atoms: _412  and  _414
REMARK  172  A    between atoms: _414  and  _415
REMARK  173  A    between atoms: _417  and  _419
REMARK  174  A    between atoms: _419  and  _420
REMARK  175  A    between atoms: _422  and  _424
REMARK  176  A    between atoms: _424  and  _425
REMARK  177  A    between atoms: _424  and  _427
REMARK  178  A    between atoms: _427  and  _428
REMARK  179  A    between atoms: _431  and  _433
REMARK  180  A    between atoms: _433  and  _434
REMARK  181  A    between atoms: _433  and  _436
REMARK  182  A    between atoms: _436  and  _437
REMARK  183  A    between atoms: _440  and  _442
REMARK  184  A    between atoms: _442  and  _443
REMARK  185  A    between atoms: _442  and  _445
REMARK  186  A    between atoms: _445  and  _446
REMARK  187  A    between atoms: _450  and  _451
REMARK  188  A    between atoms: _456  and  _458
REMARK  189  A    between atoms: _458  and  _459
REMARK  190  A    between atoms: _458  and  _461
REMARK  191  A    between atoms: _464  and  _466
REMARK  192  A    between atoms: _466  and  _467
REMARK  193  A    between atoms: _466  and  _469
REMARK  194  A    between atoms: _469  and  _470
REMARK  195  A    between atoms: _475  and  _477
REMARK  196  A    between atoms: _477  and  _478
REMARK  197  A    between atoms: _477  and  _480
REMARK  198  A    between atoms: _480  and  _481
REMARK  199  A    between atoms: _484  and  _486
REMARK  200  A    between atoms: _486  and  _487
REMARK  201  A    between atoms: _486  and  _489
REMARK  202  A    between atoms: _489  and  _490
REMARK  203  A    between atoms: _493  and  _495
REMARK  204  A    between atoms: _495  and  _496
REMARK  205  A    between atoms: _498  and  _500
REMARK  206  A    between atoms: _500  and  _501
REMARK  207  A    between atoms: _500  and  _503
REMARK  208  A    between atoms: _503  and  _504
REMARK  209  A    between atoms: _504  and  _505
REMARK  210  A    between atoms: _505  and  _506
REMARK                            x       y       z     vdW  Elec       q    Type
REMARK                         _______ _______ _______ _____ _____    ______ ____
ROOT
ATOM      1  C   ILE A   5      -6.235  22.666  33.925  0.00  0.00    +0.241 C 
ATOM      2  O   ILE A   5      -6.137  22.198  35.053  0.00  0.00    -0.273 OA
ATOM      3  N   ILE A   6      -6.885  23.795  33.677  0.00  0.00    -0.297 N 
ATOM      4  H   ILE A   6      -6.788  24.288  32.767  0.00  0.00    +0.150 HD
ENDROOT
BRANCH   1   5
ATOM      5  CA  ILE A   5      -5.612  21.943  32.749  0.00  0.00    +0.149 C 
BRANCH   5   7
ATOM      6  C   ASN A   4      -3.248  22.376  32.231  0.00  0.00    +0.241 C 
ATOM      7  N   ILE A   5      -4.164  21.776  32.972  0.00  0.00    -0.297 N 
ATOM      8  H   ILE A   5      -3.849  21.158  33.747  0.00  0.00    +0.150 HD
ATOM      9  O   ASN A   4      -3.510  23.190  31.365  0.00  0.00    -0.273 OA
BRANCH   6  10
ATOM     10  CA  ASN A   4      -1.819  21.986  32.465  0.00  0.00    +0.158 C 
BRANCH  10  13
ATOM     11  C   VAL A   3      -1.233  20.496  30.717  0.00  0.00    +0.241 C 
ATOM     12  O   VAL A   3      -1.742  19.580  31.331  0.00  0.00    -0.273 OA
ATOM     13  N   ASN A   4      -1.214  21.730  31.162  0.00  0.00    -0.297 N 
ATOM     14  H   ASN A   4      -0.784  22.497  30.607  0.00  0.00    +0.150 HD
BRANCH  11  15
ATOM     15  CA  VAL A   3      -0.549  20.236  29.412  0.00  0.00    +0.149 C 
BRANCH  15  17
ATOM     16  C   PRO A   2       0.960  18.414  28.949  0.00  0.00    +0.241 C 
ATOM     17  N   VAL A   3      -0.194  18.826  29.459  0.00  0.00    -0.297 N 
ATOM     18  H   VAL A   3      -0.845  18.140  29.892  0.00  0.00    +0.150 HD
ATOM     19  O   PRO A   2       1.785  19.175  28.482  0.00  0.00    -0.273 OA
BRANCH  16  26
ATOM     20  C   THR A   1       0.782  16.327  31.224  0.00  0.00    +0.244 C 
ATOM     21  O   THR A   1       1.747  16.980  31.557  0.00  0.00    -0.273 OA
ATOM     22  N   PRO A   2       0.434  16.176  29.942  0.00  0.00    -0.272 N 
ATOM     23  CD  PRO A   2      -0.541  15.264  29.355  0.00  0.00    +0.094 C 
ATOM     24  CG  PRO A   2      -0.024  15.025  27.934  0.00  0.00    +0.024 C 
ATOM     25  CB  PRO A   2       0.598  16.367  27.597  0.00  0.00    +0.031 C 
ATOM     26  CA  PRO A   2       1.162  16.921  28.912  0.00  0.00    +0.152 C 
BRANCH  20  27
ATOM     27  CA  THR A   1      -0.039  15.634  32.295  0.00  0.00    +0.172 C 
BRANCH  27  28
ATOM     28  N   THR A   1       0.833  15.324  33.432  0.00  0.00    -0.236 NA
ATOM     29  H   THR A   1       0.917  15.962  34.249  0.00  0.00    +0.142 HD
ENDBRANCH  27  28
BRANCH  27  30
ATOM     30  CB  THR A   1      -1.148  16.508  32.877  0.00  0.00    +0.135 C 
ATOM     31  CG2 THR A   1      -0.554  17.702  33.595  0.00  0.00    +0.034 C 
BRANCH  30  32
ATOM     32  OG1 THR A   1      -2.071  16.940  31.880  0.00  0.00    -0.383 OA
ATOM     33  HG1 THR A   1      -1.591  17.468  31.194  0.00  0.00    +0.210 HD
ENDBRANCH  30  32
ENDBRANCH  27  30
ENDBRANCH  20  27
ENDBRANCH  16  26
ENDBRANCH  15  17
BRANCH  15  34
ATOM     34  CB  VAL A   3      -1.469  20.468  28.196  0.00  0.00    +0.027 C 
ATOM     35  CG2 VAL A   3      -2.749  19.643  28.298  0.00  0.00    +0.002 C 
ATOM     36  CG1 VAL A   3      -1.798  21.943  27.937  0.00  0.00    +0.002 C 
ENDBRANCH  15  34
ENDBRANCH  11  15
ENDBRANCH  10  13
BRANCH  10  37
ATOM     37  CB  ASN A   4      -1.139  23.173  33.129  0.00  0.00    +0.114 C 
BRANCH  37  38
ATOM     38  CG  ASN A   4       0.321  22.935  33.367  0.00  0.00    +0.222 C 
ATOM     39  OD1 ASN A   4       0.763  21.898  33.827  0.00  0.00    -0.275 OA
ATOM     40  ND2 ASN A   4       1.084  23.952  33.022  0.00  0.00    -0.329 N 
ATOM     41 HD21 ASN A   4       2.116  23.891  33.138  0.00  0.00    +0.145 HD
ATOM     42 HD22 ASN A   4       0.655  24.816  32.633  0.00  0.00    +0.145 HD
ENDBRANCH  37  38
ENDBRANCH  10  37
ENDBRANCH   6  10
ENDBRANCH   5   7
BRANCH   5  43
ATOM     43  CB  ILE A   5      -6.260  20.553  32.719  0.00  0.00    +0.027 C 
ATOM     44  CG2 ILE A   5      -7.746  20.688  32.445  0.00  0.00    +0.002 C 
BRANCH  43  45
ATOM     45  CG1 ILE A   5      -5.639  19.524  31.767  0.00  0.00    +0.002 C 
ATOM     46  CD1 ILE A   5      -5.815  19.942  30.317  0.00  0.00    +0.000 C 
ENDBRANCH  43  45
ENDBRANCH   5  43
ENDBRANCH   1   5
BRANCH   3  47
ATOM     47  CA  ILE A   6      -7.741  24.314  34.736  0.00  0.00    +0.149 C 
BRANCH  47  48
ATOM     48  C   ILE A   6      -9.089  23.692  34.462  0.00  0.00    +0.241 C 
ATOM     49  N   GLY A   7      -9.730  23.191  35.497  0.00  0.00    -0.295 N 
ATOM     50  H   GLY A   7      -9.392  23.358  36.466  0.00  0.00    +0.150 HD
ATOM     51  O   ILE A   6      -9.493  23.621  33.319  0.00  0.00    -0.273 OA
BRANCH  49  52
ATOM     52  CA  GLY A   7     -10.912  22.405  35.252  0.00  0.00    +0.176 C 
BRANCH  52  53
ATOM     53  C   GLY A   7     -12.027  23.018  36.021  0.00  0.00    +0.243 C 
ATOM     54  O   GLY A   7     -11.885  24.023  36.703  0.00  0.00    -0.273 OA
ATOM     55  N   ARG A   8     -13.187  22.405  35.898  0.00  0.00    -0.297 N 
ATOM     56  H   ARG A   8     -13.265  21.457  35.478  0.00  0.00    +0.150 HD
BRANCH  55  57
ATOM     57  CA  ARG A   8     -14.341  23.123  36.378  0.00  0.00    +0.149 C 
BRANCH  57  58
ATOM     58  C   ARG A   8     -14.387  23.360  37.854  0.00  0.00    +0.241 C 
ATOM     59  N   ASN A   9     -13.756  22.461  38.598  0.00  0.00    -0.298 N 
ATOM     60  H   ASN A   9     -13.346  21.603  38.177  0.00  0.00    +0.150 HD
ATOM     61  O   ARG A   8     -14.903  24.374  38.316  0.00  0.00    -0.273 OA
BRANCH  59  62
ATOM     62  CA  ASN A   9     -13.660  22.725  40.039  0.00  0.00    +0.146 C 
BRANCH  62  63
ATOM     63  C   ASN A   9     -13.096  24.065  40.407  0.00  0.00    +0.227 C 
ATOM     64  O   ASN A   9     -13.243  24.497  41.529  0.00  0.00    -0.286 OA
ENDBRANCH  62  63
BRANCH  62  65
ATOM     65  CB  ASN A   9     -12.815  21.691  40.798  0.00  0.00    +0.112 C 
BRANCH  65  66
ATOM     66  CG  ASN A   9     -11.354  21.785  40.410  0.00  0.00    +0.222 C 
ATOM     67  ND2 ASN A   9     -10.496  21.730  41.422  0.00  0.00    -0.329 N 
ATOM     68 HD21 ASN A   9     -10.845  21.605  42.394  0.00  0.00    +0.145 HD
ATOM     69 HD22 ASN A   9      -9.475  21.812  41.243  0.00  0.00    +0.145 HD
ATOM     70  OD1 ASN A   9     -11.005  21.931  39.245  0.00  0.00    -0.275 OA
ENDBRANCH  65  66
ENDBRANCH  62  65
ENDBRANCH  59  62
ENDBRANCH  57  58
BRANCH  57  71
ATOM     71  CB  ARG A   8     -15.600  22.459  35.880  0.00  0.00    +0.033 C 
BRANCH  71  72
ATOM     72  CG  ARG A   8     -15.619  22.499  34.350  0.00  0.00    +0.045 C 
BRANCH  72  73
ATOM     73  CD  ARG A   8     -16.921  21.947  33.805  0.00  0.00    +0.174 C 
BRANCH  73  74
ATOM     74  NE  ARG A   8     -17.469  20.954  34.719  0.00  0.00    -0.265 N 
ATOM     75  HE  ARG A   8     -18.051  21.277  35.518  0.00  0.00    +0.259 HD
ATOM     76  CZ  ARG A   8     -17.255  19.658  34.571  0.00  0.00    +0.342 C 
ATOM     77  NH2 ARG A   8     -17.765  18.853  35.505  0.00  0.00    -0.292 N 
ATOM     78 HH21 ARG A   8     -18.301  19.254  36.301  0.00  0.00    +0.255 HD
ATOM     79 HH22 ARG A   8     -17.626  17.825  35.437  0.00  0.00    +0.255 HD
ATOM     80  NH1 ARG A   8     -16.565  19.169  33.531  0.00  0.00    -0.292 N 
ATOM     81 HH11 ARG A   8     -16.414  18.144  33.443  0.00  0.00    +0.255 HD
ATOM     82 HH12 ARG A   8     -16.181  19.815  32.812  0.00  0.00    +0.255 HD
ENDBRANCH  73  74
ENDBRANCH  72  73
ENDBRANCH  71  72
ENDBRANCH  57  71
ENDBRANCH  55  57
ENDBRANCH  52  53
ENDBRANCH  49  52
ENDBRANCH  47  48
BRANCH  47  83
ATOM     83  CB  ILE A   6      -7.801  25.853  34.668  0.00  0.00    +0.027 C 
ATOM     84  CG2 ILE A   6      -8.675  26.486  35.760  0.00  0.00    +0.002 C 
BRANCH  83  85
ATOM     85  CG1 ILE A   6      -6.432  26.519  34.739  0.00  0.00    +0.002 C 
ATOM     86  CD1 ILE A   6      -5.831  26.482  36.134  0.00  0.00    +0.000 C 
ENDBRANCH  83  85
ENDBRANCH  47  83
ENDBRANCH   3  47
TORSDOF 32
REMARK  Name = ../refined-set-2016/1qbu/1qbu_pocket.pdb
REMARK  210 active torsions:
REMARK  status: ('A' for Active; 'I' for Inactive)
REMARK    1  A    between atoms: _1  and  _3
REMARK    2  A    between atoms: _3  and  _4
REMARK    3  A    between atoms: _3  and  _6
REMARK    4  A    between atoms: _6  and  _7
REMARK    5  A    between atoms: _7  and  _8
REMARK    6  A    between atoms: _8  and  _9
REMARK    7  A    between atoms: _18  and  _20
REMARK    8  A    between atoms: _20  and  _21
REMARK    9  A    between atoms: _20  and  _23
REMARK   10  A    between atoms: _23  and  _24
REMARK   11  A    between atoms: _27  and  _29
REMARK   12  A    between atoms: _29  and  _30
REMARK   13  A    between atoms: _29  and  _32
REMARK   14  A    between atoms: _32  and  _33
REMARK   15  A    between atoms: _36  and  _38
REMARK   16  A    between atoms: _38  and  _39
REMARK   17  A    between atoms: _38  and  _41
REMARK   18  A    between atoms: _41  and  _42
REMARK   19  A    between atoms: _45  and  _47
REMARK   20  A    between atoms: _47  and  _48
REMARK   21  A    between atoms: _47  and  _50
REMARK   22  A    between atoms: _50  and  _51
REMARK   23  A    between atoms: _54  and  _56
REMARK   24  A    between atoms: _56  and  _57
REMARK   25  A    between atoms: _59  and  _61
REMARK   26  A    between atoms: _61  and  _62
REMARK   27  A    between atoms: _65  and  _67
REMARK   28  A    between atoms: _67  and  _68
REMARK   29  A    between atoms: _67  and  _70
REMARK   30  A    between atoms: _70  and  _71
REMARK   31  A    between atoms: _74  and  _76
REMARK   32  A    between atoms: _76  and  _77
REMARK   33  A    between atoms: _76  and  _79
REMARK   34  A    between atoms: _79  and  _80
REMARK   35  A    between atoms: _83  and  _85
REMARK   36  A    between atoms: _85  and  _86
REMARK   37  A    between atoms: _85  and  _88
REMARK   38  A    between atoms: _88  and  _89
REMARK   39  A    between atoms: _92  and  _94
REMARK   40  A    between atoms: _94  and  _95
REMARK   41  A    between atoms: _94  and  _97
REMARK   42  A    between atoms: _100  and  _102
REMARK   43  A    between atoms: _102  and  _103
REMARK   44  A    between atoms: _102  and  _105
REMARK   45  A    between atoms: _105  and  _106
REMARK   46  A    between atoms: _109  and  _111
REMARK   47  A    between atoms: _111  and  _112
REMARK   48  A    between atoms: _111  and  _114
REMARK   49  A    between atoms: _114  and  _115
REMARK   50  A    between atoms: _115  and  _116
REMARK   51  A    between atoms: _116  and  _117
REMARK   52  A    between atoms: _117  and  _118
REMARK   53  A    between atoms: _122  and  _124
REMARK   54  A    between atoms: _124  and  _125
REMARK   55  A    between atoms: _124  and  _127
REMARK   56  A    between atoms: _127  and  _128
REMARK   57  A    between atoms: _128  and  _129
REMARK   58  A    between atoms: _131  and  _133
REMARK   59  A    between atoms: _133  and  _134
REMARK   60  A    between atoms: _133  and  _136
REMARK   61  A    between atoms: _136  and  _137
REMARK   62  A    between atoms: _140  and  _142
REMARK   63  A    between atoms: _142  and  _143
REMARK   64  A    between atoms: _145  and  _147
REMARK   65  A    between atoms: _147  and  _148
REMARK   66  A    between atoms: _150  and  _152
REMARK   67  A    between atoms: _152  and  _153
REMARK   68  A    between atoms: _152  and  _155
REMARK   69  A    between atoms: _155  and  _156
REMARK   70  A    between atoms: _159  and  _161
REMARK   71  A    between atoms: _161  and  _162
REMARK   72  A    between atoms: _164  and  _166
REMARK   73  A    between atoms: _166  and  _167
REMARK   74  A    between atoms: _169  and  _171
REMARK   75  A    between atoms: _171  and  _172
REMARK   76  A    between atoms: _171  and  _174
REMARK   77  A    between atoms: _174  and  _175
REMARK   78  A    between atoms: _181  and  _183
REMARK   79  A    between atoms: _183  and  _184
REMARK   80  A    between atoms: _183  and  _186
REMARK   81  A    between atoms: _186  and  _187
REMARK   82  A    between atoms: _190  and  _192
REMARK   83  A    between atoms: _192  and  _193
REMARK   84  A    between atoms: _192  and  _195
REMARK   85  A    between atoms: _195  and  _196
REMARK   86  A    between atoms: _199  and  _201
REMARK   87  A    between atoms: _201  and  _202
REMARK   88  A    between atoms: _201  and  _204
REMARK   89  A    between atoms: _204  and  _205
REMARK   90  A    between atoms: _209  and  _210
REMARK   91  A    between atoms: _215  and  _217
REMARK   92  A    between atoms: _217  and  _218
REMARK   93  A    between atoms: _217  and  _220
REMARK   94  A    between atoms: _223  and  _225
REMARK   95  A    between atoms: _225  and  _226
REMARK   96  A    between atoms: _225  and  _228
REMARK   97  A    between atoms: _228  and  _229
REMARK   98  A    between atoms: _234  and  _236
REMARK   99  A    between atoms: _236  and  _237
REMARK  100  A    between atoms: _236  and  _239
REMARK  101  A    between atoms: _239  and  _240
REMARK  102  A    between atoms: _243  and  _245
REMARK  103  A    between atoms: _245  and  _246
REMARK  104  A    between atoms: _245  and  _248
REMARK  105  A    between atoms: _248  and  _249
REMARK  106  A    between atoms: _252  and  _254
REMARK  107  A    between atoms: _254  and  _255
REMARK  108  A    between atoms: _257  and  _259
REMARK  109  A    between atoms: _259  and  _260
REMARK  110  A    between atoms: _259  and  _262
REMARK  111  A    between atoms: _262  and  _263
REMARK  112  A    between atoms: _263  and  _264
REMARK  113  A    between atoms: _264  and  _265
REMARK  114  A    between atoms: _274  and  _276
REMARK  115  A    between atoms: _276  and  _277
REMARK  116  A    between atoms: _276  and  _279
REMARK  117  A    between atoms: _279  and  _280
REMARK  118  A    between atoms: _285  and  _287
REMARK  119  A    between atoms: _287  and  _288
REMARK  120  A    between atoms: _287  and  _290
REMARK  121  A    between atoms: _290  and  _291
REMARK  122  A    between atoms: _291  and  _292
REMARK  123  A    between atoms: _292  and  _293
REMARK  124  A    between atoms: _302  and  _304
REMARK  125  A    between atoms: _304  and  _305
REMARK  126  A    between atoms: _304  and  _307
REMARK  127  A    between atoms: _307  and  _308
REMARK  128  A    between atoms: _311  and  _313
REMARK  129  A    between atoms: _313  and  _314
REMARK  130  A    between atoms: _313  and  _316
REMARK  131  A    between atoms: _316  and  _317
REMARK  132  A    between atoms: _320  and  _322
REMARK  133  A    between atoms: _322  and  _323
REMARK  134  A    between atoms: _322  and  _325
REMARK  135  A    between atoms: _325  and  _326
REMARK  136  A    between atoms: _329  and  _331
REMARK  137  A    between atoms: _331  and  _332
REMARK  138  A    between atoms: _331  and  _334
REMARK  139  A    between atoms: _334  and  _335
REMARK  140  A    between atoms: _338  and  _340
REMARK  141  A    between atoms: _340  and  _341
REMARK  142  A    between atoms: _343  and  _345
REMARK  143  A    between atoms: _345  and  _346
REMARK  144  A    between atoms: _349  and  _351
REMARK  145  A    between atoms: _351  and  _352
REMARK  146  A    between atoms: _351  and  _354
REMARK  147  A    between atoms: _354  and  _355
REMARK  148  A    between atoms: _358  and  _360
REMARK  149  A    between atoms: _360  and  _361
REMARK  150  A    between atoms: _360  and  _363
REMARK  151  A    between atoms: _363  and  _364
REMARK  152  A    between atoms: _367  and  _369
REMARK  153  A    between atoms: _369  and  _370
REMARK  154  A    between atoms: _369  and  _372
REMARK  155  A    between atoms: _372  and  _373
REMARK  156  A    between atoms: _376  and  _378
REMARK  157  A    between atoms: _378  and  _379
REMARK  158  A    between atoms: _378  and  _381
REMARK  159  A    between atoms: _384  and  _386
REMARK  160  A    between atoms: _386  and  _387
REMARK  161  A    between atoms: _386  and  _389
REMARK  162  A    between atoms: _389  and  _390
REMARK  163  A    between atoms: _393  and  _395
REMARK  164  A    between atoms: _395  and  _396
REMARK  165  A    between atoms: _398  and  _400
REMARK  166  A    between atoms: _400  and  _401
REMARK  167  A    between atoms: _403  and  _405
REMARK  168  A    between atoms: _405  and  _406
REMARK  169  A    between atoms: _405  and  _408
REMARK  170  A    between atoms: _408  and  _409
REMARK  171  A    between atoms: _412  and  _414
REMARK  172  A    between atoms: _414  and  _415
REMARK  173  A    between atoms: _417  and  _419
REMARK  174  A    between atoms: _419  and  _420
REMARK  175  A    between atoms: _422  and  _424
REMARK  176  A    between atoms: _424  and  _425
REMARK  177  A    between atoms: _424  and  _427
REMARK  178  A    between atoms: _427  and  _428
REMARK  179  A    between atoms: _431  and  _433
REMARK  180  A    between atoms: _433  and  _434
REMARK  181  A    between atoms: _433  and  _436
REMARK  182  A    between atoms: _436  and  _437
REMARK  183  A    between atoms: _440  and  _442
REMARK  184  A    between atoms: _442  and  _443
REMARK  185  A    between atoms: _442  and  _445
REMARK  186  A    between atoms: _445  and  _446
REMARK  187  A    between atoms: _450  and  _451
REMARK  188  A    between atoms: _456  and  _458
REMARK  189  A    between atoms: _458  and  _459
REMARK  190  A    between atoms: _458  and  _461
REMARK  191  A    between atoms: _464  and  _466
REMARK  192  A    between atoms: _466  and  _467
REMARK  193  A    between atoms: _466  and  _469
REMARK  194  A    between atoms: _469  and  _470
REMARK  195  A    between atoms: _475  and  _477
REMARK  196  A    between atoms: _477  and  _478
REMARK  197  A    between atoms: _477  and  _480
REMARK  198  A    between atoms: _480  and  _481
REMARK  199  A    between atoms: _484  and  _486
REMARK  200  A    between atoms: _486  and  _487
REMARK  201  A    between atoms: _486  and  _489
REMARK  202  A    between atoms: _489  and  _490
REMARK  203  A    between atoms: _493  and  _495
REMARK  204  A    between atoms: _495  and  _496
REMARK  205  A    between atoms: _498  and  _500
REMARK  206  A    between atoms: _500  and  _501
REMARK  207  A    between atoms: _500  and  _503
REMARK  208  A    between atoms: _503  and  _504
REMARK  209  A    between atoms: _504  and  _505
REMARK  210  A    between atoms: _505  and  _506
REMARK                            x       y       z     vdW  Elec       q    Type
REMARK                         _______ _______ _______ _____ _____    ______ ____
ROOT
ATOM      1  NE  ARG A   1     -18.878  14.331  33.245  0.00  0.00    -0.265 N 
ATOM      2  HE  ARG A   1     -19.253  13.732  34.008  0.00  0.00    +0.259 HD
ATOM      3  CZ  ARG A   1     -17.599  14.167  32.858  0.00  0.00    +0.342 C 
ATOM      4  NH2 ARG A   1     -16.846  13.264  33.488  0.00  0.00    -0.292 N 
ATOM      5 HH21 ARG A   1     -17.249  12.701  34.264  0.00  0.00    +0.255 HD
ATOM      6 HH22 ARG A   1     -15.856  13.123  33.203  0.00  0.00    +0.255 HD
ATOM      7  NH1 ARG A   1     -17.060  14.898  31.875  0.00  0.00    -0.292 N 
ATOM      8 HH11 ARG A   1     -16.069  14.748  31.599  0.00  0.00    +0.255 HD
ATOM      9 HH12 ARG A   1     -17.632  15.616  31.387  0.00  0.00    +0.255 HD
ENDROOT
BRANCH   1  10
ATOM     10  CD  ARG A   1     -19.763  15.331  32.624  0.00  0.00    +0.174 C 
BRANCH  10  11
ATOM     11  CG  ARG A   1     -19.809  16.688  33.357  0.00  0.00    +0.045 C 
BRANCH  11  12
ATOM     12  CB  ARG A   1     -20.715  17.625  32.560  0.00  0.00    +0.029 C 
BRANCH  12  13
ATOM     13  CA  ARG A   1     -20.766  19.116  32.905  0.00  0.00    +0.133 C 
BRANCH  13  14
ATOM     14  N   ARG A   1     -21.535  19.338  34.131  0.00  0.00    -0.239 NA
ATOM     15  H   ARG A   1     -22.008  18.561  34.636  0.00  0.00    +0.142 HD
ENDBRANCH  13  14
BRANCH  13  16
ATOM     16  C   ARG A   1     -21.559  19.750  31.805  0.00  0.00    +0.224 C 
ATOM     17  O   ARG A   1     -22.730  19.446  31.740  0.00  0.00    -0.287 OA
ENDBRANCH  13  16
ENDBRANCH  12  13
ENDBRANCH  11  12
ENDBRANCH  10  11
ENDBRANCH   1  10
TORSDOF 6
REMARK  Name = ../refined-set-2016/1qbu/1qbu_pocket.pdb
REMARK  210 active torsions:
REMARK  status: ('A' for Active; 'I' for Inactive)
REMARK    1  A    between atoms: _1  and  _3
REMARK    2  A    between atoms: _3  and  _4
REMARK    3  A    between atoms: _3  and  _6
REMARK    4  A    between atoms: _6  and  _7
REMARK    5  A    between atoms: _7  and  _8
REMARK    6  A    between atoms: _8  and  _9
REMARK    7  A    between atoms: _18  and  _20
REMARK    8  A    between atoms: _20  and  _21
REMARK    9  A    between atoms: _20  and  _23
REMARK   10  A    between atoms: _23  and  _24
REMARK   11  A    between atoms: _27  and  _29
REMARK   12  A    between atoms: _29  and  _30
REMARK   13  A    between atoms: _29  and  _32
REMARK   14  A    between atoms: _32  and  _33
REMARK   15  A    between atoms: _36  and  _38
REMARK   16  A    between atoms: _38  and  _39
REMARK   17  A    between atoms: _38  and  _41
REMARK   18  A    between atoms: _41  and  _42
REMARK   19  A    between atoms: _45  and  _47
REMARK   20  A    between atoms: _47  and  _48
REMARK   21  A    between atoms: _47  and  _50
REMARK   22  A    between atoms: _50  and  _51
REMARK   23  A    between atoms: _54  and  _56
REMARK   24  A    between atoms: _56  and  _57
REMARK   25  A    between atoms: _59  and  _61
REMARK   26  A    between atoms: _61  and  _62
REMARK   27  A    between atoms: _65  and  _67
REMARK   28  A    between atoms: _67  and  _68
REMARK   29  A    between atoms: _67  and  _70
REMARK   30  A    between atoms: _70  and  _71
REMARK   31  A    between atoms: _74  and  _76
REMARK   32  A    between atoms: _76  and  _77
REMARK   33  A    between atoms: _76  and  _79
REMARK   34  A    between atoms: _79  and  _80
REMARK   35  A    between atoms: _83  and  _85
REMARK   36  A    between atoms: _85  and  _86
REMARK   37  A    between atoms: _85  and  _88
REMARK   38  A    between atoms: _88  and  _89
REMARK   39  A    between atoms: _92  and  _94
REMARK   40  A    between atoms: _94  and  _95
REMARK   41  A    between atoms: _94  and  _97
REMARK   42  A    between atoms: _100  and  _102
REMARK   43  A    between atoms: _102  and  _103
REMARK   44  A    between atoms: _102  and  _105
REMARK   45  A    between atoms: _105  and  _106
REMARK   46  A    between atoms: _109  and  _111
REMARK   47  A    between atoms: _111  and  _112
REMARK   48  A    between atoms: _111  and  _114
REMARK   49  A    between atoms: _114  and  _115
REMARK   50  A    between atoms: _115  and  _116
REMARK   51  A    between atoms: _116  and  _117
REMARK   52  A    between atoms: _117  and  _118
REMARK   53  A    between atoms: _122  and  _124
REMARK   54  A    between atoms: _124  and  _125
REMARK   55  A    between atoms: _124  and  _127
REMARK   56  A    between atoms: _127  and  _128
REMARK   57  A    between atoms: _128  and  _129
REMARK   58  A    between atoms: _131  and  _133
REMARK   59  A    between atoms: _133  and  _134
REMARK   60  A    between atoms: _133  and  _136
REMARK   61  A    between atoms: _136  and  _137
REMARK   62  A    between atoms: _140  and  _142
REMARK   63  A    between atoms: _142  and  _143
REMARK   64  A    between atoms: _145  and  _147
REMARK   65  A    between atoms: _147  and  _148
REMARK   66  A    between atoms: _150  and  _152
REMARK   67  A    between atoms: _152  and  _153
REMARK   68  A    between atoms: _152  and  _155
REMARK   69  A    between atoms: _155  and  _156
REMARK   70  A    between atoms: _159  and  _161
REMARK   71  A    between atoms: _161  and  _162
REMARK   72  A    between atoms: _164  and  _166
REMARK   73  A    between atoms: _166  and  _167
REMARK   74  A    between atoms: _169  and  _171
REMARK   75  A    between atoms: _171  and  _172
REMARK   76  A    between atoms: _171  and  _174
REMARK   77  A    between atoms: _174  and  _175
REMARK   78  A    between atoms: _181  and  _183
REMARK   79  A    between atoms: _183  and  _184
REMARK   80  A    between atoms: _183  and  _186
REMARK   81  A    between atoms: _186  and  _187
REMARK   82  A    between atoms: _190  and  _192
REMARK   83  A    between atoms: _192  and  _193
REMARK   84  A    between atoms: _192  and  _195
REMARK   85  A    between atoms: _195  and  _196
REMARK   86  A    between atoms: _199  and  _201
REMARK   87  A    between atoms: _201  and  _202
REMARK   88  A    between atoms: _201  and  _204
REMARK   89  A    between atoms: _204  and  _205
REMARK   90  A    between atoms: _209  and  _210
REMARK   91  A    between atoms: _215  and  _217
REMARK   92  A    between atoms: _217  and  _218
REMARK   93  A    between atoms: _217  and  _220
REMARK   94  A    between atoms: _223  and  _225
REMARK   95  A    between atoms: _225  and  _226
REMARK   96  A    between atoms: _225  and  _228
REMARK   97  A    between atoms: _228  and  _229
REMARK   98  A    between atoms: _234  and  _236
REMARK   99  A    between atoms: _236  and  _237
REMARK  100  A    between atoms: _236  and  _239
REMARK  101  A    between atoms: _239  and  _240
REMARK  102  A    between atoms: _243  and  _245
REMARK  103  A    between atoms: _245  and  _246
REMARK  104  A    between atoms: _245  and  _248
REMARK  105  A    between atoms: _248  and  _249
REMARK  106  A    between atoms: _252  and  _254
REMARK  107  A    between atoms: _254  and  _255
REMARK  108  A    between atoms: _257  and  _259
REMARK  109  A    between atoms: _259  and  _260
REMARK  110  A    between atoms: _259  and  _262
REMARK  111  A    between atoms: _262  and  _263
REMARK  112  A    between atoms: _263  and  _264
REMARK  113  A    between atoms: _264  and  _265
REMARK  114  A    between atoms: _274  and  _276
REMARK  115  A    between atoms: _276  and  _277
REMARK  116  A    between atoms: _276  and  _279
REMARK  117  A    between atoms: _279  and  _280
REMARK  118  A    between atoms: _285  and  _287
REMARK  119  A    between atoms: _287  and  _288
REMARK  120  A    between atoms: _287  and  _290
REMARK  121  A    between atoms: _290  and  _291
REMARK  122  A    between atoms: _291  and  _292
REMARK  123  A    between atoms: _292  and  _293
REMARK  124  A    between atoms: _302  and  _304
REMARK  125  A    between atoms: _304  and  _305
REMARK  126  A    between atoms: _304  and  _307
REMARK  127  A    between atoms: _307  and  _308
REMARK  128  A    between atoms: _311  and  _313
REMARK  129  A    between atoms: _313  and  _314
REMARK  130  A    between atoms: _313  and  _316
REMARK  131  A    between atoms: _316  and  _317
REMARK  132  A    between atoms: _320  and  _322
REMARK  133  A    between atoms: _322  and  _323
REMARK  134  A    between atoms: _322  and  _325
REMARK  135  A    between atoms: _325  and  _326
REMARK  136  A    between atoms: _329  and  _331
REMARK  137  A    between atoms: _331  and  _332
REMARK  138  A    between atoms: _331  and  _334
REMARK  139  A    between atoms: _334  and  _335
REMARK  140  A    between atoms: _338  and  _340
REMARK  141  A    between atoms: _340  and  _341
REMARK  142  A    between atoms: _343  and  _345
REMARK  143  A    between atoms: _345  and  _346
REMARK  144  A    between atoms: _349  and  _351
REMARK  145  A    between atoms: _351  and  _352
REMARK  146  A    between atoms: _351  and  _354
REMARK  147  A    between atoms: _354  and  _355
REMARK  148  A    between atoms: _358  and  _360
REMARK  149  A    between atoms: _360  and  _361
REMARK  150  A    between atoms: _360  and  _363
REMARK  151  A    between atoms: _363  and  _364
REMARK  152  A    between atoms: _367  and  _369
REMARK  153  A    between atoms: _369  and  _370
REMARK  154  A    between atoms: _369  and  _372
REMARK  155  A    between atoms: _372  and  _373
REMARK  156  A    between atoms: _376  and  _378
REMARK  157  A    between atoms: _378  and  _379
REMARK  158  A    between atoms: _378  and  _381
REMARK  159  A    between atoms: _384  and  _386
REMARK  160  A    between atoms: _386  and  _387
REMARK  161  A    between atoms: _386  and  _389
REMARK  162  A    between atoms: _389  and  _390
REMARK  163  A    between atoms: _393  and  _395
REMARK  164  A    between atoms: _395  and  _396
REMARK  165  A    between atoms: _398  and  _400
REMARK  166  A    between atoms: _400  and  _401
REMARK  167  A    between atoms: _403  and  _405
REMARK  168  A    between atoms: _405  and  _406
REMARK  169  A    between atoms: _405  and  _408
REMARK  170  A    between atoms: _408  and  _409
REMARK  171  A    between atoms: _412  and  _414
REMARK  172  A    between atoms: _414  and  _415
REMARK  173  A    between atoms: _417  and  _419
REMARK  174  A    between atoms: _419  and  _420
REMARK  175  A    between atoms: _422  and  _424
REMARK  176  A    between atoms: _424  and  _425
REMARK  177  A    between atoms: _424  and  _427
REMARK  178  A    between atoms: _427  and  _428
REMARK  179  A    between atoms: _431  and  _433
REMARK  180  A    between atoms: _433  and  _434
REMARK  181  A    between atoms: _433  and  _436
REMARK  182  A    between atoms: _436  and  _437
REMARK  183  A    between atoms: _440  and  _442
REMARK  184  A    between atoms: _442  and  _443
REMARK  185  A    between atoms: _442  and  _445
REMARK  186  A    between atoms: _445  and  _446
REMARK  187  A    between atoms: _450  and  _451
REMARK  188  A    between atoms: _456  and  _458
REMARK  189  A    between atoms: _458  and  _459
REMARK  190  A    between atoms: _458  and  _461
REMARK  191  A    between atoms: _464  and  _466
REMARK  192  A    between atoms: _466  and  _467
REMARK  193  A    between atoms: _466  and  _469
REMARK  194  A    between atoms: _469  and  _470
REMARK  195  A    between atoms: _475  and  _477
REMARK  196  A    between atoms: _477  and  _478
REMARK  197  A    between atoms: _477  and  _480
REMARK  198  A    between atoms: _480  and  _481
REMARK  199  A    between atoms: _484  and  _486
REMARK  200  A    between atoms: _486  and  _487
REMARK  201  A    between atoms: _486  and  _489
REMARK  202  A    between atoms: _489  and  _490
REMARK  203  A    between atoms: _493  and  _495
REMARK  204  A    between atoms: _495  and  _496
REMARK  205  A    between atoms: _498  and  _500
REMARK  206  A    between atoms: _500  and  _501
REMARK  207  A    between atoms: _500  and  _503
REMARK  208  A    between atoms: _503  and  _504
REMARK  209  A    between atoms: _504  and  _505
REMARK  210  A    between atoms: _505  and  _506
REMARK                            x       y       z     vdW  Elec       q    Type
REMARK                         _______ _______ _______ _____ _____    ______ ____
ROOT
ATOM      1  C   GLY A   5      -9.189  21.460  24.869  0.00  0.00    +0.243 C 
ATOM      2  O   GLY A   5      -8.032  21.094  24.732  0.00  0.00    -0.273 OA
ATOM      3  N   ALA A   6     -10.176  20.995  24.114  0.00  0.00    -0.297 N 
ATOM      4  H   ALA A   6     -11.159  21.301  24.264  0.00  0.00    +0.150 HD
ENDROOT
BRANCH   3   5
ATOM      5  CA  ALA A   6      -9.835  20.040  23.067  0.00  0.00    +0.149 C 
ATOM      6  CB  ALA A   6     -10.891  18.938  22.971  0.00  0.00    +0.031 C 
BRANCH   5   7
ATOM      7  C   ALA A   6      -9.751  20.729  21.731  0.00  0.00    +0.241 C 
ATOM      8  O   ALA A   6     -10.596  21.519  21.358  0.00  0.00    -0.273 OA
ATOM      9  N   ASP A   7      -8.712  20.406  20.984  0.00  0.00    -0.297 N 
ATOM     10  H   ASP A   7      -8.003  19.730  21.334  0.00  0.00    +0.150 HD
BRANCH   9  11
ATOM     11  CA  ASP A   7      -8.568  21.008  19.660  0.00  0.00    +0.160 C 
BRANCH  11  12
ATOM     12  C   ASP A   7      -9.592  20.520  18.669  0.00  0.00    +0.241 C 
ATOM     13  N   ASP A   8     -10.002  19.274  18.894  0.00  0.00    -0.297 N 
ATOM     14  H   ASP A   8      -9.757  18.816  19.795  0.00  0.00    +0.150 HD
ATOM     15  O   ASP A   7      -9.965  21.209  17.730  0.00  0.00    -0.273 OA
BRANCH  13  16
ATOM     16  CA  ASP A   8     -10.787  18.530  17.909  0.00  0.00    +0.160 C 
BRANCH  16  17
ATOM     17  C   ASP A   8     -11.981  17.874  18.560  0.00  0.00    +0.241 C 
ATOM     18  O   ASP A   8     -12.113  17.902  19.766  0.00  0.00    -0.273 OA
ATOM     19  N   THR A   9     -12.845  17.302  17.752  0.00  0.00    -0.295 N 
ATOM     20  H   THR A   9     -12.622  17.250  16.738  0.00  0.00    +0.150 HD
BRANCH  19  21
ATOM     21  CA  THR A   9     -14.103  16.738  18.222  0.00  0.00    +0.176 C 
BRANCH  21  22
ATOM     22  C   THR A   9     -13.977  15.268  18.033  0.00  0.00    +0.243 C 
ATOM     23  N   VAL A  10     -14.188  14.531  19.081  0.00  0.00    -0.298 N 
ATOM     24  H   VAL A  10     -14.457  14.968  19.985  0.00  0.00    +0.150 HD
ATOM     25  O   THR A   9     -13.650  14.812  16.955  0.00  0.00    -0.273 OA
BRANCH  23  26
ATOM     26  CA  VAL A  10     -14.043  13.083  18.976  0.00  0.00    +0.137 C 
BRANCH  26  27
ATOM     27  CB  VAL A  10     -12.723  12.608  19.635  0.00  0.00    +0.026 C 
ATOM     28  CG2 VAL A  10     -12.584  13.115  21.065  0.00  0.00    +0.002 C 
ATOM     29  CG1 VAL A  10     -12.543  11.082  19.556  0.00  0.00    +0.002 C 
ENDBRANCH  26  27
BRANCH  26  30
ATOM     30  C   VAL A  10     -15.240  12.458  19.638  0.00  0.00    +0.227 C 
ATOM     31  O   VAL A  10     -15.635  12.781  20.752  0.00  0.00    -0.286 OA
ENDBRANCH  26  30
ENDBRANCH  23  26
ENDBRANCH  21  22
BRANCH  21  32
ATOM     32  CB  THR A   9     -15.219  17.283  17.316  0.00  0.00    +0.137 C 
ATOM     33  CG2 THR A   9     -16.599  16.684  17.572  0.00  0.00    +0.034 C 
BRANCH  32  34
ATOM     34  OG1 THR A   9     -15.260  18.705  17.445  0.00  0.00    -0.382 OA
ATOM     35  HG1 THR A   9     -14.388  19.085  17.171  0.00  0.00    +0.210 HD
ENDBRANCH  32  34
ENDBRANCH  21  32
ENDBRANCH  19  21
ENDBRANCH  16  17
BRANCH  16  36
ATOM     36  CB  ASP A   8      -9.895  17.465  17.268  0.00  0.00    +0.143 C 
BRANCH  36  37
ATOM     37  CG  ASP A   8      -8.797  18.084  16.425  0.00  0.00    +0.367 C 
ATOM     38  OD2 ASP A   8      -7.646  18.000  16.836  0.00  0.00    -0.246 OA
ATOM     39  OD1 ASP A   8      -9.091  18.629  15.355  0.00  0.00    -0.246 OA
ENDBRANCH  36  37
ENDBRANCH  16  36
ENDBRANCH  13  16
ENDBRANCH  11  12
BRANCH  11  40
ATOM     40  CB  ASP A   7      -7.201  20.669  19.064  0.00  0.00    +0.143 C 
BRANCH  40  41
ATOM     41  CG  ASP A   7      -6.059  21.145  19.928  0.00  0.00    +0.367 C 
ATOM     42  OD2 ASP A   7      -6.018  22.318  20.283  0.00  0.00    -0.246 OA
ATOM     43  OD1 ASP A   7      -5.195  20.342  20.248  0.00  0.00    -0.246 OA
ENDBRANCH  40  41
ENDBRANCH  11  40
ENDBRANCH   9  11
ENDBRANCH   5   7
ENDBRANCH   3   5
BRANCH   1  44
ATOM     44  CA  GLY A   5      -9.598  22.435  25.945  0.00  0.00    +0.176 C 
BRANCH  44  46
ATOM     45  C   THR A   4     -11.372  23.869  25.277  0.00  0.00    +0.243 C 
ATOM     46  N   GLY A   5     -11.011  22.780  25.936  0.00  0.00    -0.295 N 
ATOM     47  H   GLY A   5     -11.712  22.192  26.430  0.00  0.00    +0.150 HD
ATOM     48  O   THR A   4     -10.566  24.589  24.728  0.00  0.00    -0.273 OA
BRANCH  45  49
ATOM     49  CA  THR A   4     -12.857  24.164  25.255  0.00  0.00    +0.176 C 
BRANCH  49  51
ATOM     50  C   ASP A   3     -13.747  21.919  25.114  0.00  0.00    +0.241 C 
ATOM     51  N   THR A   4     -13.751  23.102  25.711  0.00  0.00    -0.295 N 
ATOM     52  H   THR A   4     -14.395  23.276  26.509  0.00  0.00    +0.150 HD
ATOM     53  O   ASP A   3     -12.929  21.626  24.263  0.00  0.00    -0.273 OA
BRANCH  50  54
ATOM     54  CA  ASP A   3     -14.765  20.918  25.602  0.00  0.00    +0.160 C 
BRANCH  54  57
ATOM     55  C   LEU A   2     -17.075  21.210  25.836  0.00  0.00    +0.241 C 
ATOM     56  O   LEU A   2     -16.912  21.465  27.024  0.00  0.00    -0.273 OA
ATOM     57  N   ASP A   3     -16.076  21.093  25.019  0.00  0.00    -0.297 N 
ATOM     58  H   ASP A   3     -16.212  21.124  23.988  0.00  0.00    +0.150 HD
BRANCH  55  59
ATOM     59  CA  LEU A   2     -18.416  20.981  25.209  0.00  0.00    +0.149 C 
BRANCH  59  61
ATOM     60  C   LEU A   1     -18.747  18.615  25.436  0.00  0.00    +0.238 C 
ATOM     61  N   LEU A   2     -19.050  19.830  25.836  0.00  0.00    -0.297 N 
ATOM     62  H   LEU A   2     -19.742  19.969  26.600  0.00  0.00    +0.150 HD
ATOM     63  O   LEU A   1     -18.007  18.427  24.490  0.00  0.00    -0.274 OA
BRANCH  60  64
ATOM     64  CA  LEU A   1     -19.349  17.463  26.211  0.00  0.00    +0.145 C 
BRANCH  64  65
ATOM     65  N   LEU A   1     -19.985  16.510  25.302  0.00  0.00    -0.238 NA
ATOM     66  H   LEU A   1     -19.430  15.719  24.917  0.00  0.00    +0.142 HD
ENDBRANCH  64  65
BRANCH  64  67
ATOM     67  CB  LEU A   1     -18.239  16.692  26.922  0.00  0.00    +0.026 C 
BRANCH  67  68
ATOM     68  CG  LEU A   1     -17.569  17.319  28.138  0.00  0.00    +0.002 C 
ATOM     69  CD2 LEU A   1     -18.525  17.464  29.320  0.00  0.00    +0.000 C 
ATOM     70  CD1 LEU A   1     -16.381  16.452  28.546  0.00  0.00    +0.000 C 
ENDBRANCH  67  68
ENDBRANCH  64  67
ENDBRANCH  60  64
ENDBRANCH  59  61
BRANCH  59  71
ATOM     71  CB  LEU A   2     -19.303  22.153  25.536  0.00  0.00    +0.029 C 
BRANCH  71  72
ATOM     72  CG  LEU A   2     -20.263  22.697  24.489  0.00  0.00    +0.002 C 
ATOM     73  CD2 LEU A   2     -21.364  23.407  25.257  0.00  0.00    +0.000 C 
ATOM     74  CD1 LEU A   2     -20.832  21.666  23.527  0.00  0.00    +0.000 C 
ENDBRANCH  71  72
ENDBRANCH  59  71
ENDBRANCH  55  59
ENDBRANCH  54  57
BRANCH  54  75
ATOM     75  CB  ASP A   3     -14.348  19.522  25.189  0.00  0.00    +0.143 C 
BRANCH  75  76
ATOM     76  CG  ASP A   3     -13.290  18.939  26.066  0.00  0.00    +0.367 C 
ATOM     77  OD2 ASP A   3     -12.768  19.634  26.930  0.00  0.00    -0.246 OA
ATOM     78  OD1 ASP A   3     -12.994  17.764  25.881  0.00  0.00    -0.246 OA
ENDBRANCH  75  76
ENDBRANCH  54  75
ENDBRANCH  50  54
ENDBRANCH  49  51
BRANCH  49  79
ATOM     79  CB  THR A   4     -13.179  25.428  26.073  0.00  0.00    +0.137 C 
ATOM     80  CG2 THR A   4     -14.646  25.812  25.897  0.00  0.00    +0.034 C 
BRANCH  79  81
ATOM     81  OG1 THR A   4     -12.913  25.236  27.478  0.00  0.00    -0.382 OA
ATOM     82  HG1 THR A   4     -13.470  24.493  27.820  0.00  0.00    +0.210 HD
ENDBRANCH  79  81
ENDBRANCH  49  79
ENDBRANCH  45  49
ENDBRANCH  44  46
ENDBRANCH   1  44
TORSDOF 35
REMARK  Name = ../refined-set-2016/1qbu/1qbu_pocket.pdb
REMARK  210 active torsions:
REMARK  status: ('A' for Active; 'I' for Inactive)
REMARK    1  A    between atoms: _1  and  _3
REMARK    2  A    between atoms: _3  and  _4
REMARK    3  A    between atoms: _3  and  _6
REMARK    4  A    between atoms: _6  and  _7
REMARK    5  A    between atoms: _7  and  _8
REMARK    6  A    between atoms: _8  and  _9
REMARK    7  A    between atoms: _18  and  _20
REMARK    8  A    between atoms: _20  and  _21
REMARK    9  A    between atoms: _20  and  _23
REMARK   10  A    between atoms: _23  and  _24
REMARK   11  A    between atoms: _27  and  _29
REMARK   12  A    between atoms: _29  and  _30
REMARK   13  A    between atoms: _29  and  _32
REMARK   14  A    between atoms: _32  and  _33
REMARK   15  A    between atoms: _36  and  _38
REMARK   16  A    between atoms: _38  and  _39
REMARK   17  A    between atoms: _38  and  _41
REMARK   18  A    between atoms: _41  and  _42
REMARK   19  A    between atoms: _45  and  _47
REMARK   20  A    between atoms: _47  and  _48
REMARK   21  A    between atoms: _47  and  _50
REMARK   22  A    between atoms: _50  and  _51
REMARK   23  A    between atoms: _54  and  _56
REMARK   24  A    between atoms: _56  and  _57
REMARK   25  A    between atoms: _59  and  _61
REMARK   26  A    between atoms: _61  and  _62
REMARK   27  A    between atoms: _65  and  _67
REMARK   28  A    between atoms: _67  and  _68
REMARK   29  A    between atoms: _67  and  _70
REMARK   30  A    between atoms: _70  and  _71
REMARK   31  A    between atoms: _74  and  _76
REMARK   32  A    between atoms: _76  and  _77
REMARK   33  A    between atoms: _76  and  _79
REMARK   34  A    between atoms: _79  and  _80
REMARK   35  A    between atoms: _83  and  _85
REMARK   36  A    between atoms: _85  and  _86
REMARK   37  A    between atoms: _85  and  _88
REMARK   38  A    between atoms: _88  and  _89
REMARK   39  A    between atoms: _92  and  _94
REMARK   40  A    between atoms: _94  and  _95
REMARK   41  A    between atoms: _94  and  _97
REMARK   42  A    between atoms: _100  and  _102
REMARK   43  A    between atoms: _102  and  _103
REMARK   44  A    between atoms: _102  and  _105
REMARK   45  A    between atoms: _105  and  _106
REMARK   46  A    between atoms: _109  and  _111
REMARK   47  A    between atoms: _111  and  _112
REMARK   48  A    between atoms: _111  and  _114
REMARK   49  A    between atoms: _114  and  _115
REMARK   50  A    between atoms: _115  and  _116
REMARK   51  A    between atoms: _116  and  _117
REMARK   52  A    between atoms: _117  and  _118
REMARK   53  A    between atoms: _122  and  _124
REMARK   54  A    between atoms: _124  and  _125
REMARK   55  A    between atoms: _124  and  _127
REMARK   56  A    between atoms: _127  and  _128
REMARK   57  A    between atoms: _128  and  _129
REMARK   58  A    between atoms: _131  and  _133
REMARK   59  A    between atoms: _133  and  _134
REMARK   60  A    between atoms: _133  and  _136
REMARK   61  A    between atoms: _136  and  _137
REMARK   62  A    between atoms: _140  and  _142
REMARK   63  A    between atoms: _142  and  _143
REMARK   64  A    between atoms: _145  and  _147
REMARK   65  A    between atoms: _147  and  _148
REMARK   66  A    between atoms: _150  and  _152
REMARK   67  A    between atoms: _152  and  _153
REMARK   68  A    between atoms: _152  and  _155
REMARK   69  A    between atoms: _155  and  _156
REMARK   70  A    between atoms: _159  and  _161
REMARK   71  A    between atoms: _161  and  _162
REMARK   72  A    between atoms: _164  and  _166
REMARK   73  A    between atoms: _166  and  _167
REMARK   74  A    between atoms: _169  and  _171
REMARK   75  A    between atoms: _171  and  _172
REMARK   76  A    between atoms: _171  and  _174
REMARK   77  A    between atoms: _174  and  _175
REMARK   78  A    between atoms: _181  and  _183
REMARK   79  A    between atoms: _183  and  _184
REMARK   80  A    between atoms: _183  and  _186
REMARK   81  A    between atoms: _186  and  _187
REMARK   82  A    between atoms: _190  and  _192
REMARK   83  A    between atoms: _192  and  _193
REMARK   84  A    between atoms: _192  and  _195
REMARK   85  A    between atoms: _195  and  _196
REMARK   86  A    between atoms: _199  and  _201
REMARK   87  A    between atoms: _201  and  _202
REMARK   88  A    between atoms: _201  and  _204
REMARK   89  A    between atoms: _204  and  _205
REMARK   90  A    between atoms: _209  and  _210
REMARK   91  A    between atoms: _215  and  _217
REMARK   92  A    between atoms: _217  and  _218
REMARK   93  A    between atoms: _217  and  _220
REMARK   94  A    between atoms: _223  and  _225
REMARK   95  A    between atoms: _225  and  _226
REMARK   96  A    between atoms: _225  and  _228
REMARK   97  A    between atoms: _228  and  _229
REMARK   98  A    between atoms: _234  and  _236
REMARK   99  A    between atoms: _236  and  _237
REMARK  100  A    between atoms: _236  and  _239
REMARK  101  A    between atoms: _239  and  _240
REMARK  102  A    between atoms: _243  and  _245
REMARK  103  A    between atoms: _245  and  _246
REMARK  104  A    between atoms: _245  and  _248
REMARK  105  A    between atoms: _248  and  _249
REMARK  106  A    between atoms: _252  and  _254
REMARK  107  A    between atoms: _254  and  _255
REMARK  108  A    between atoms: _257  and  _259
REMARK  109  A    between atoms: _259  and  _260
REMARK  110  A    between atoms: _259  and  _262
REMARK  111  A    between atoms: _262  and  _263
REMARK  112  A    between atoms: _263  and  _264
REMARK  113  A    between atoms: _264  and  _265
REMARK  114  A    between atoms: _274  and  _276
REMARK  115  A    between atoms: _276  and  _277
REMARK  116  A    between atoms: _276  and  _279
REMARK  117  A    between atoms: _279  and  _280
REMARK  118  A    between atoms: _285  and  _287
REMARK  119  A    between atoms: _287  and  _288
REMARK  120  A    between atoms: _287  and  _290
REMARK  121  A    between atoms: _290  and  _291
REMARK  122  A    between atoms: _291  and  _292
REMARK  123  A    between atoms: _292  and  _293
REMARK  124  A    between atoms: _302  and  _304
REMARK  125  A    between atoms: _304  and  _305
REMARK  126  A    between atoms: _304  and  _307
REMARK  127  A    between atoms: _307  and  _308
REMARK  128  A    between atoms: _311  and  _313
REMARK  129  A    between atoms: _313  and  _314
REMARK  130  A    between atoms: _313  and  _316
REMARK  131  A    between atoms: _316  and  _317
REMARK  132  A    between atoms: _320  and  _322
REMARK  133  A    between atoms: _322  and  _323
REMARK  134  A    between atoms: _322  and  _325
REMARK  135  A    between atoms: _325  and  _326
REMARK  136  A    between atoms: _329  and  _331
REMARK  137  A    between atoms: _331  and  _332
REMARK  138  A    between atoms: _331  and  _334
REMARK  139  A    between atoms: _334  and  _335
REMARK  140  A    between atoms: _338  and  _340
REMARK  141  A    between atoms: _340  and  _341
REMARK  142  A    between atoms: _343  and  _345
REMARK  143  A    between atoms: _345  and  _346
REMARK  144  A    between atoms: _349  and  _351
REMARK  145  A    between atoms: _351  and  _352
REMARK  146  A    between atoms: _351  and  _354
REMARK  147  A    between atoms: _354  and  _355
REMARK  148  A    between atoms: _358  and  _360
REMARK  149  A    between atoms: _360  and  _361
REMARK  150  A    between atoms: _360  and  _363
REMARK  151  A    between atoms: _363  and  _364
REMARK  152  A    between atoms: _367  and  _369
REMARK  153  A    between atoms: _369  and  _370
REMARK  154  A    between atoms: _369  and  _372
REMARK  155  A    between atoms: _372  and  _373
REMARK  156  A    between atoms: _376  and  _378
REMARK  157  A    between atoms: _378  and  _379
REMARK  158  A    between atoms: _378  and  _381
REMARK  159  A    between atoms: _384  and  _386
REMARK  160  A    between atoms: _386  and  _387
REMARK  161  A    between atoms: _386  and  _389
REMARK  162  A    between atoms: _389  and  _390
REMARK  163  A    between atoms: _393  and  _395
REMARK  164  A    between atoms: _395  and  _396
REMARK  165  A    between atoms: _398  and  _400
REMARK  166  A    between atoms: _400  and  _401
REMARK  167  A    between atoms: _403  and  _405
REMARK  168  A    between atoms: _405  and  _406
REMARK  169  A    between atoms: _405  and  _408
REMARK  170  A    between atoms: _408  and  _409
REMARK  171  A    between atoms: _412  and  _414
REMARK  172  A    between atoms: _414  and  _415
REMARK  173  A    between atoms: _417  and  _419
REMARK  174  A    between atoms: _419  and  _420
REMARK  175  A    between atoms: _422  and  _424
REMARK  176  A    between atoms: _424  and  _425
REMARK  177  A    between atoms: _424  and  _427
REMARK  178  A    between atoms: _427  and  _428
REMARK  179  A    between atoms: _431  and  _433
REMARK  180  A    between atoms: _433  and  _434
REMARK  181  A    between atoms: _433  and  _436
REMARK  182  A    between atoms: _436  and  _437
REMARK  183  A    between atoms: _440  and  _442
REMARK  184  A    between atoms: _442  and  _443
REMARK  185  A    between atoms: _442  and  _445
REMARK  186  A    between atoms: _445  and  _446
REMARK  187  A    between atoms: _450  and  _451
REMARK  188  A    between atoms: _456  and  _458
REMARK  189  A    between atoms: _458  and  _459
REMARK  190  A    between atoms: _458  and  _461
REMARK  191  A    between atoms: _464  and  _466
REMARK  192  A    between atoms: _466  and  _467
REMARK  193  A    between atoms: _466  and  _469
REMARK  194  A    between atoms: _469  and  _470
REMARK  195  A    between atoms: _475  and  _477
REMARK  196  A    between atoms: _477  and  _478
REMARK  197  A    between atoms: _477  and  _480
REMARK  198  A    between atoms: _480  and  _481
REMARK  199  A    between atoms: _484  and  _486
REMARK  200  A    between atoms: _486  and  _487
REMARK  201  A    between atoms: _486  and  _489
REMARK  202  A    between atoms: _489  and  _490
REMARK  203  A    between atoms: _493  and  _495
REMARK  204  A    between atoms: _495  and  _496
REMARK  205  A    between atoms: _498  and  _500
REMARK  206  A    between atoms: _500  and  _501
REMARK  207  A    between atoms: _500  and  _503
REMARK  208  A    between atoms: _503  and  _504
REMARK  209  A    between atoms: _504  and  _505
REMARK  210  A    between atoms: _505  and  _506
REMARK                            x       y       z     vdW  Elec       q    Type
REMARK                         _______ _______ _______ _____ _____    ______ ____
ROOT
ATOM      1  C   GLY A   3      -3.942  12.904  26.969  0.00  0.00    +0.243 C 
ATOM      2  N   ILE A   4      -4.543  13.187  28.099  0.00  0.00    -0.297 N 
ATOM      3  H   ILE A   4      -5.343  13.850  28.126  0.00  0.00    +0.150 HD
ATOM      4  O   GLY A   3      -2.894  12.277  26.904  0.00  0.00    -0.273 OA
ENDROOT
BRANCH   2   5
ATOM      5  CA  ILE A   4      -4.062  12.550  29.311  0.00  0.00    +0.149 C 
BRANCH   5   6
ATOM      6  C   ILE A   4      -4.405  11.091  29.183  0.00  0.00    +0.241 C 
ATOM      7  N   GLY A   5      -3.439  10.269  29.527  0.00  0.00    -0.295 N 
ATOM      8  H   GLY A   5      -2.551  10.618  29.941  0.00  0.00    +0.150 HD
ATOM      9  O   ILE A   4      -5.495  10.742  28.758  0.00  0.00    -0.273 OA
BRANCH   7  10
ATOM     10  CA  GLY A   5      -3.667   8.852  29.304  0.00  0.00    +0.176 C 
BRANCH  10  11
ATOM     11  C   GLY A   5      -2.895   8.293  28.123  0.00  0.00    +0.243 C 
ATOM     12  O   GLY A   5      -2.505   7.139  28.084  0.00  0.00    -0.273 OA
ATOM     13  N   GLY A   6      -2.658   9.128  27.137  0.00  0.00    -0.296 N 
ATOM     14  H   GLY A   6      -2.937  10.129  27.169  0.00  0.00    +0.150 HD
BRANCH  13  15
ATOM     15  CA  GLY A   6      -1.972   8.536  25.993  0.00  0.00    +0.163 C 
BRANCH  15  16
ATOM     16  C   GLY A   6      -2.737   8.743  24.709  0.00  0.00    +0.229 C 
ATOM     17  O   GLY A   6      -3.158   9.843  24.391  0.00  0.00    -0.286 OA
ENDBRANCH  15  16
ENDBRANCH  13  15
ENDBRANCH  10  11
ENDBRANCH   7  10
ENDBRANCH   5   6
BRANCH   5  18
ATOM     18  CB  ILE A   4      -4.819  13.238  30.443  0.00  0.00    +0.027 C 
ATOM     19  CG2 ILE A   4      -5.099  12.399  31.688  0.00  0.00    +0.002 C 
BRANCH  18  20
ATOM     20  CG1 ILE A   4      -4.046  14.476  30.849  0.00  0.00    +0.002 C 
ATOM     21  CD1 ILE A   4      -4.928  15.629  31.296  0.00  0.00    +0.000 C 
ENDBRANCH  18  20
ENDBRANCH   5  18
ENDBRANCH   2   5
BRANCH   1  22
ATOM     22  CA  GLY A   3      -4.674  13.382  25.766  0.00  0.00    +0.176 C 
BRANCH  22  24
ATOM     23  C   GLY A   2      -4.446  12.916  23.437  0.00  0.00    +0.243 C 
ATOM     24  N   GLY A   3      -4.201  12.581  24.670  0.00  0.00    -0.295 N 
ATOM     25  H   GLY A   3      -3.653  11.719  24.866  0.00  0.00    +0.150 HD
ATOM     26  O   GLY A   2      -5.041  13.922  23.091  0.00  0.00    -0.273 OA
BRANCH  23  27
ATOM     27  CA  GLY A   2      -3.893  11.934  22.466  0.00  0.00    +0.176 C 
BRANCH  27  29
ATOM     28  C   ILE A   1      -4.566  11.229  20.374  0.00  0.00    +0.238 C 
ATOM     29  N   GLY A   2      -4.282  12.264  21.118  0.00  0.00    -0.296 N 
ATOM     30  H   GLY A   2      -4.332  13.242  20.768  0.00  0.00    +0.150 HD
ATOM     31  O   ILE A   1      -4.491  10.071  20.758  0.00  0.00    -0.274 OA
BRANCH  28  32
ATOM     32  CA  ILE A   1      -4.999  11.593  18.999  0.00  0.00    +0.145 C 
BRANCH  32  33
ATOM     33  CB  ILE A   1      -6.411  12.227  19.061  0.00  0.00    +0.025 C 
ATOM     34  CG2 ILE A   1      -6.726  13.065  17.815  0.00  0.00    +0.002 C 
BRANCH  33  35
ATOM     35  CG1 ILE A   1      -7.549  11.239  19.364  0.00  0.00    +0.002 C 
ATOM     36  CD1 ILE A   1      -8.655  11.872  20.193  0.00  0.00    +0.000 C 
ENDBRANCH  33  35
ENDBRANCH  32  33
BRANCH  32  37
ATOM     37  N   ILE A   1      -4.924  10.399  18.164  0.00  0.00    -0.238 NA
ATOM     38  H   ILE A   1      -5.392   9.501  18.400  0.00  0.00    +0.142 HD
ENDBRANCH  32  37
ENDBRANCH  28  32
ENDBRANCH  27  29
ENDBRANCH  23  27
ENDBRANCH  22  24
ENDBRANCH   1  22
TORSDOF 16
REMARK  Name = ../refined-set-2016/1qbu/1qbu_pocket.pdb
REMARK  210 active torsions:
REMARK  status: ('A' for Active; 'I' for Inactive)
REMARK    1  A    between atoms: _1  and  _3
REMARK    2  A    between atoms: _3  and  _4
REMARK    3  A    between atoms: _3  and  _6
REMARK    4  A    between atoms: _6  and  _7
REMARK    5  A    between atoms: _7  and  _8
REMARK    6  A    between atoms: _8  and  _9
REMARK    7  A    between atoms: _18  and  _20
REMARK    8  A    between atoms: _20  and  _21
REMARK    9  A    between atoms: _20  and  _23
REMARK   10  A    between atoms: _23  and  _24
REMARK   11  A    between atoms: _27  and  _29
REMARK   12  A    between atoms: _29  and  _30
REMARK   13  A    between atoms: _29  and  _32
REMARK   14  A    between atoms: _32  and  _33
REMARK   15  A    between atoms: _36  and  _38
REMARK   16  A    between atoms: _38  and  _39
REMARK   17  A    between atoms: _38  and  _41
REMARK   18  A    between atoms: _41  and  _42
REMARK   19  A    between atoms: _45  and  _47
REMARK   20  A    between atoms: _47  and  _48
REMARK   21  A    between atoms: _47  and  _50
REMARK   22  A    between atoms: _50  and  _51
REMARK   23  A    between atoms: _54  and  _56
REMARK   24  A    between atoms: _56  and  _57
REMARK   25  A    between atoms: _59  and  _61
REMARK   26  A    between atoms: _61  and  _62
REMARK   27  A    between atoms: _65  and  _67
REMARK   28  A    between atoms: _67  and  _68
REMARK   29  A    between atoms: _67  and  _70
REMARK   30  A    between atoms: _70  and  _71
REMARK   31  A    between atoms: _74  and  _76
REMARK   32  A    between atoms: _76  and  _77
REMARK   33  A    between atoms: _76  and  _79
REMARK   34  A    between atoms: _79  and  _80
REMARK   35  A    between atoms: _83  and  _85
REMARK   36  A    between atoms: _85  and  _86
REMARK   37  A    between atoms: _85  and  _88
REMARK   38  A    between atoms: _88  and  _89
REMARK   39  A    between atoms: _92  and  _94
REMARK   40  A    between atoms: _94  and  _95
REMARK   41  A    between atoms: _94  and  _97
REMARK   42  A    between atoms: _100  and  _102
REMARK   43  A    between atoms: _102  and  _103
REMARK   44  A    between atoms: _102  and  _105
REMARK   45  A    between atoms: _105  and  _106
REMARK   46  A    between atoms: _109  and  _111
REMARK   47  A    between atoms: _111  and  _112
REMARK   48  A    between atoms: _111  and  _114
REMARK   49  A    between atoms: _114  and  _115
REMARK   50  A    between atoms: _115  and  _116
REMARK   51  A    between atoms: _116  and  _117
REMARK   52  A    between atoms: _117  and  _118
REMARK   53  A    between atoms: _122  and  _124
REMARK   54  A    between atoms: _124  and  _125
REMARK   55  A    between atoms: _124  and  _127
REMARK   56  A    between atoms: _127  and  _128
REMARK   57  A    between atoms: _128  and  _129
REMARK   58  A    between atoms: _131  and  _133
REMARK   59  A    between atoms: _133  and  _134
REMARK   60  A    between atoms: _133  and  _136
REMARK   61  A    between atoms: _136  and  _137
REMARK   62  A    between atoms: _140  and  _142
REMARK   63  A    between atoms: _142  and  _143
REMARK   64  A    between atoms: _145  and  _147
REMARK   65  A    between atoms: _147  and  _148
REMARK   66  A    between atoms: _150  and  _152
REMARK   67  A    between atoms: _152  and  _153
REMARK   68  A    between atoms: _152  and  _155
REMARK   69  A    between atoms: _155  and  _156
REMARK   70  A    between atoms: _159  and  _161
REMARK   71  A    between atoms: _161  and  _162
REMARK   72  A    between atoms: _164  and  _166
REMARK   73  A    between atoms: _166  and  _167
REMARK   74  A    between atoms: _169  and  _171
REMARK   75  A    between atoms: _171  and  _172
REMARK   76  A    between atoms: _171  and  _174
REMARK   77  A    between atoms: _174  and  _175
REMARK   78  A    between atoms: _181  and  _183
REMARK   79  A    between atoms: _183  and  _184
REMARK   80  A    between atoms: _183  and  _186
REMARK   81  A    between atoms: _186  and  _187
REMARK   82  A    between atoms: _190  and  _192
REMARK   83  A    between atoms: _192  and  _193
REMARK   84  A    between atoms: _192  and  _195
REMARK   85  A    between atoms: _195  and  _196
REMARK   86  A    between atoms: _199  and  _201
REMARK   87  A    between atoms: _201  and  _202
REMARK   88  A    between atoms: _201  and  _204
REMARK   89  A    between atoms: _204  and  _205
REMARK   90  A    between atoms: _209  and  _210
REMARK   91  A    between atoms: _215  and  _217
REMARK   92  A    between atoms: _217  and  _218
REMARK   93  A    between atoms: _217  and  _220
REMARK   94  A    between atoms: _223  and  _225
REMARK   95  A    between atoms: _225  and  _226
REMARK   96  A    between atoms: _225  and  _228
REMARK   97  A    between atoms: _228  and  _229
REMARK   98  A    between atoms: _234  and  _236
REMARK   99  A    between atoms: _236  and  _237
REMARK  100  A    between atoms: _236  and  _239
REMARK  101  A    between atoms: _239  and  _240
REMARK  102  A    between atoms: _243  and  _245
REMARK  103  A    between atoms: _245  and  _246
REMARK  104  A    between atoms: _245  and  _248
REMARK  105  A    between atoms: _248  and  _249
REMARK  106  A    between atoms: _252  and  _254
REMARK  107  A    between atoms: _254  and  _255
REMARK  108  A    between atoms: _257  and  _259
REMARK  109  A    between atoms: _259  and  _260
REMARK  110  A    between atoms: _259  and  _262
REMARK  111  A    between atoms: _262  and  _263
REMARK  112  A    between atoms: _263  and  _264
REMARK  113  A    between atoms: _264  and  _265
REMARK  114  A    between atoms: _274  and  _276
REMARK  115  A    between atoms: _276  and  _277
REMARK  116  A    between atoms: _276  and  _279
REMARK  117  A    between atoms: _279  and  _280
REMARK  118  A    between atoms: _285  and  _287
REMARK  119  A    between atoms: _287  and  _288
REMARK  120  A    between atoms: _287  and  _290
REMARK  121  A    between atoms: _290  and  _291
REMARK  122  A    between atoms: _291  and  _292
REMARK  123  A    between atoms: _292  and  _293
REMARK  124  A    between atoms: _302  and  _304
REMARK  125  A    between atoms: _304  and  _305
REMARK  126  A    between atoms: _304  and  _307
REMARK  127  A    between atoms: _307  and  _308
REMARK  128  A    between atoms: _311  and  _313
REMARK  129  A    between atoms: _313  and  _314
REMARK  130  A    between atoms: _313  and  _316
REMARK  131  A    between atoms: _316  and  _317
REMARK  132  A    between atoms: _320  and  _322
REMARK  133  A    between atoms: _322  and  _323
REMARK  134  A    between atoms: _322  and  _325
REMARK  135  A    between atoms: _325  and  _326
REMARK  136  A    between atoms: _329  and  _331
REMARK  137  A    between atoms: _331  and  _332
REMARK  138  A    between atoms: _331  and  _334
REMARK  139  A    between atoms: _334  and  _335
REMARK  140  A    between atoms: _338  and  _340
REMARK  141  A    between atoms: _340  and  _341
REMARK  142  A    between atoms: _343  and  _345
REMARK  143  A    between atoms: _345  and  _346
REMARK  144  A    between atoms: _349  and  _351
REMARK  145  A    between atoms: _351  and  _352
REMARK  146  A    between atoms: _351  and  _354
REMARK  147  A    between atoms: _354  and  _355
REMARK  148  A    between atoms: _358  and  _360
REMARK  149  A    between atoms: _360  and  _361
REMARK  150  A    between atoms: _360  and  _363
REMARK  151  A    between atoms: _363  and  _364
REMARK  152  A    between atoms: _367  and  _369
REMARK  153  A    between atoms: _369  and  _370
REMARK  154  A    between atoms: _369  and  _372
REMARK  155  A    between atoms: _372  and  _373
REMARK  156  A    between atoms: _376  and  _378
REMARK  157  A    between atoms: _378  and  _379
REMARK  158  A    between atoms: _378  and  _381
REMARK  159  A    between atoms: _384  and  _386
REMARK  160  A    between atoms: _386  and  _387
REMARK  161  A    between atoms: _386  and  _389
REMARK  162  A    between atoms: _389  and  _390
REMARK  163  A    between atoms: _393  and  _395
REMARK  164  A    between atoms: _395  and  _396
REMARK  165  A    between atoms: _398  and  _400
REMARK  166  A    between atoms: _400  and  _401
REMARK  167  A    between atoms: _403  and  _405
REMARK  168  A    between atoms: _405  and  _406
REMARK  169  A    between atoms: _405  and  _408
REMARK  170  A    between atoms: _408  and  _409
REMARK  171  A    between atoms: _412  and  _414
REMARK  172  A    between atoms: _414  and  _415
REMARK  173  A    between atoms: _417  and  _419
REMARK  174  A    between atoms: _419  and  _420
REMARK  175  A    between atoms: _422  and  _424
REMARK  176  A    between atoms: _424  and  _425
REMARK  177  A    between atoms: _424  and  _427
REMARK  178  A    between atoms: _427  and  _428
REMARK  179  A    between atoms: _431  and  _433
REMARK  180  A    between atoms: _433  and  _434
REMARK  181  A    between atoms: _433  and  _436
REMARK  182  A    between atoms: _436  and  _437
REMARK  183  A    between atoms: _440  and  _442
REMARK  184  A    between atoms: _442  and  _443
REMARK  185  A    between atoms: _442  and  _445
REMARK  186  A    between atoms: _445  and  _446
REMARK  187  A    between atoms: _450  and  _451
REMARK  188  A    between atoms: _456  and  _458
REMARK  189  A    between atoms: _458  and  _459
REMARK  190  A    between atoms: _458  and  _461
REMARK  191  A    between atoms: _464  and  _466
REMARK  192  A    between atoms: _466  and  _467
REMARK  193  A    between atoms: _466  and  _469
REMARK  194  A    between atoms: _469  and  _470
REMARK  195  A    between atoms: _475  and  _477
REMARK  196  A    between atoms: _477  and  _478
REMARK  197  A    between atoms: _477  and  _480
REMARK  198  A    between atoms: _480  and  _481
REMARK  199  A    between atoms: _484  and  _486
REMARK  200  A    between atoms: _486  and  _487
REMARK  201  A    between atoms: _486  and  _489
REMARK  202  A    between atoms: _489  and  _490
REMARK  203  A    between atoms: _493  and  _495
REMARK  204  A    between atoms: _495  and  _496
REMARK  205  A    between atoms: _498  and  _500
REMARK  206  A    between atoms: _500  and  _501
REMARK  207  A    between atoms: _500  and  _503
REMARK  208  A    between atoms: _503  and  _504
REMARK  209  A    between atoms: _504  and  _505
REMARK  210  A    between atoms: _505  and  _506
REMARK                            x       y       z     vdW  Elec       q    Type
REMARK                         _______ _______ _______ _____ _____    ______ ____
ROOT
ATOM      1  CA  ILE A   1      -6.078   6.545  20.767  0.00  0.00    +0.133 C 
ENDROOT
BRANCH   1   2
ATOM      2  N   ILE A   1      -5.178   7.458  21.435  0.00  0.00    -0.239 NA
ATOM      3  H   ILE A   1      -5.337   8.485  21.465  0.00  0.00    +0.142 HD
ENDBRANCH   1   2
BRANCH   1   4
ATOM      4  CB  ILE A   1      -7.510   6.720  21.293  0.00  0.00    +0.023 C 
ATOM      5  CG2 ILE A   1      -7.521   6.581  22.815  0.00  0.00    +0.002 C 
BRANCH   4   6
ATOM      6  CG1 ILE A   1      -8.210   8.008  20.874  0.00  0.00    +0.002 C 
ATOM      7  CD1 ILE A   1      -9.651   8.069  21.367  0.00  0.00    +0.000 C 
ENDBRANCH   4   6
ENDBRANCH   1   4
BRANCH   1   8
ATOM      8  C   ILE A   1      -5.976   6.734  19.272  0.00  0.00    +0.224 C 
ATOM      9  O   ILE A   1      -5.370   7.671  18.772  0.00  0.00    -0.287 OA
ENDBRANCH   1   8
TORSDOF 4
REMARK  Name = ../refined-set-2016/1qbu/1qbu_pocket.pdb
REMARK  210 active torsions:
REMARK  status: ('A' for Active; 'I' for Inactive)
REMARK    1  A    between atoms: _1  and  _3
REMARK    2  A    between atoms: _3  and  _4
REMARK    3  A    between atoms: _3  and  _6
REMARK    4  A    between atoms: _6  and  _7
REMARK    5  A    between atoms: _7  and  _8
REMARK    6  A    between atoms: _8  and  _9
REMARK    7  A    between atoms: _18  and  _20
REMARK    8  A    between atoms: _20  and  _21
REMARK    9  A    between atoms: _20  and  _23
REMARK   10  A    between atoms: _23  and  _24
REMARK   11  A    between atoms: _27  and  _29
REMARK   12  A    between atoms: _29  and  _30
REMARK   13  A    between atoms: _29  and  _32
REMARK   14  A    between atoms: _32  and  _33
REMARK   15  A    between atoms: _36  and  _38
REMARK   16  A    between atoms: _38  and  _39
REMARK   17  A    between atoms: _38  and  _41
REMARK   18  A    between atoms: _41  and  _42
REMARK   19  A    between atoms: _45  and  _47
REMARK   20  A    between atoms: _47  and  _48
REMARK   21  A    between atoms: _47  and  _50
REMARK   22  A    between atoms: _50  and  _51
REMARK   23  A    between atoms: _54  and  _56
REMARK   24  A    between atoms: _56  and  _57
REMARK   25  A    between atoms: _59  and  _61
REMARK   26  A    between atoms: _61  and  _62
REMARK   27  A    between atoms: _65  and  _67
REMARK   28  A    between atoms: _67  and  _68
REMARK   29  A    between atoms: _67  and  _70
REMARK   30  A    between atoms: _70  and  _71
REMARK   31  A    between atoms: _74  and  _76
REMARK   32  A    between atoms: _76  and  _77
REMARK   33  A    between atoms: _76  and  _79
REMARK   34  A    between atoms: _79  and  _80
REMARK   35  A    between atoms: _83  and  _85
REMARK   36  A    between atoms: _85  and  _86
REMARK   37  A    between atoms: _85  and  _88
REMARK   38  A    between atoms: _88  and  _89
REMARK   39  A    between atoms: _92  and  _94
REMARK   40  A    between atoms: _94  and  _95
REMARK   41  A    between atoms: _94  and  _97
REMARK   42  A    between atoms: _100  and  _102
REMARK   43  A    between atoms: _102  and  _103
REMARK   44  A    between atoms: _102  and  _105
REMARK   45  A    between atoms: _105  and  _106
REMARK   46  A    between atoms: _109  and  _111
REMARK   47  A    between atoms: _111  and  _112
REMARK   48  A    between atoms: _111  and  _114
REMARK   49  A    between atoms: _114  and  _115
REMARK   50  A    between atoms: _115  and  _116
REMARK   51  A    between atoms: _116  and  _117
REMARK   52  A    between atoms: _117  and  _118
REMARK   53  A    between atoms: _122  and  _124
REMARK   54  A    between atoms: _124  and  _125
REMARK   55  A    between atoms: _124  and  _127
REMARK   56  A    between atoms: _127  and  _128
REMARK   57  A    between atoms: _128  and  _129
REMARK   58  A    between atoms: _131  and  _133
REMARK   59  A    between atoms: _133  and  _134
REMARK   60  A    between atoms: _133  and  _136
REMARK   61  A    between atoms: _136  and  _137
REMARK   62  A    between atoms: _140  and  _142
REMARK   63  A    between atoms: _142  and  _143
REMARK   64  A    between atoms: _145  and  _147
REMARK   65  A    between atoms: _147  and  _148
REMARK   66  A    between atoms: _150  and  _152
REMARK   67  A    between atoms: _152  and  _153
REMARK   68  A    between atoms: _152  and  _155
REMARK   69  A    between atoms: _155  and  _156
REMARK   70  A    between atoms: _159  and  _161
REMARK   71  A    between atoms: _161  and  _162
REMARK   72  A    between atoms: _164  and  _166
REMARK   73  A    between atoms: _166  and  _167
REMARK   74  A    between atoms: _169  and  _171
REMARK   75  A    between atoms: _171  and  _172
REMARK   76  A    between atoms: _171  and  _174
REMARK   77  A    between atoms: _174  and  _175
REMARK   78  A    between atoms: _181  and  _183
REMARK   79  A    between atoms: _183  and  _184
REMARK   80  A    between atoms: _183  and  _186
REMARK   81  A    between atoms: _186  and  _187
REMARK   82  A    between atoms: _190  and  _192
REMARK   83  A    between atoms: _192  and  _193
REMARK   84  A    between atoms: _192  and  _195
REMARK   85  A    between atoms: _195  and  _196
REMARK   86  A    between atoms: _199  and  _201
REMARK   87  A    between atoms: _201  and  _202
REMARK   88  A    between atoms: _201  and  _204
REMARK   89  A    between atoms: _204  and  _205
REMARK   90  A    between atoms: _209  and  _210
REMARK   91  A    between atoms: _215  and  _217
REMARK   92  A    between atoms: _217  and  _218
REMARK   93  A    between atoms: _217  and  _220
REMARK   94  A    between atoms: _223  and  _225
REMARK   95  A    between atoms: _225  and  _226
REMARK   96  A    between atoms: _225  and  _228
REMARK   97  A    between atoms: _228  and  _229
REMARK   98  A    between atoms: _234  and  _236
REMARK   99  A    between atoms: _236  and  _237
REMARK  100  A    between atoms: _236  and  _239
REMARK  101  A    between atoms: _239  and  _240
REMARK  102  A    between atoms: _243  and  _245
REMARK  103  A    between atoms: _245  and  _246
REMARK  104  A    between atoms: _245  and  _248
REMARK  105  A    between atoms: _248  and  _249
REMARK  106  A    between atoms: _252  and  _254
REMARK  107  A    between atoms: _254  and  _255
REMARK  108  A    between atoms: _257  and  _259
REMARK  109  A    between atoms: _259  and  _260
REMARK  110  A    between atoms: _259  and  _262
REMARK  111  A    between atoms: _262  and  _263
REMARK  112  A    between atoms: _263  and  _264
REMARK  113  A    between atoms: _264  and  _265
REMARK  114  A    between atoms: _274  and  _276
REMARK  115  A    between atoms: _276  and  _277
REMARK  116  A    between atoms: _276  and  _279
REMARK  117  A    between atoms: _279  and  _280
REMARK  118  A    between atoms: _285  and  _287
REMARK  119  A    between atoms: _287  and  _288
REMARK  120  A    between atoms: _287  and  _290
REMARK  121  A    between atoms: _290  and  _291
REMARK  122  A    between atoms: _291  and  _292
REMARK  123  A    between atoms: _292  and  _293
REMARK  124  A    between atoms: _302  and  _304
REMARK  125  A    between atoms: _304  and  _305
REMARK  126  A    between atoms: _304  and  _307
REMARK  127  A    between atoms: _307  and  _308
REMARK  128  A    between atoms: _311  and  _313
REMARK  129  A    between atoms: _313  and  _314
REMARK  130  A    between atoms: _313  and  _316
REMARK  131  A    between atoms: _316  and  _317
REMARK  132  A    between atoms: _320  and  _322
REMARK  133  A    between atoms: _322  and  _323
REMARK  134  A    between atoms: _322  and  _325
REMARK  135  A    between atoms: _325  and  _326
REMARK  136  A    between atoms: _329  and  _331
REMARK  137  A    between atoms: _331  and  _332
REMARK  138  A    between atoms: _331  and  _334
REMARK  139  A    between atoms: _334  and  _335
REMARK  140  A    between atoms: _338  and  _340
REMARK  141  A    between atoms: _340  and  _341
REMARK  142  A    between atoms: _343  and  _345
REMARK  143  A    between atoms: _345  and  _346
REMARK  144  A    between atoms: _349  and  _351
REMARK  145  A    between atoms: _351  and  _352
REMARK  146  A    between atoms: _351  and  _354
REMARK  147  A    between atoms: _354  and  _355
REMARK  148  A    between atoms: _358  and  _360
REMARK  149  A    between atoms: _360  and  _361
REMARK  150  A    between atoms: _360  and  _363
REMARK  151  A    between atoms: _363  and  _364
REMARK  152  A    between atoms: _367  and  _369
REMARK  153  A    between atoms: _369  and  _370
REMARK  154  A    between atoms: _369  and  _372
REMARK  155  A    between atoms: _372  and  _373
REMARK  156  A    between atoms: _376  and  _378
REMARK  157  A    between atoms: _378  and  _379
REMARK  158  A    between atoms: _378  and  _381
REMARK  159  A    between atoms: _384  and  _386
REMARK  160  A    between atoms: _386  and  _387
REMARK  161  A    between atoms: _386  and  _389
REMARK  162  A    between atoms: _389  and  _390
REMARK  163  A    between atoms: _393  and  _395
REMARK  164  A    between atoms: _395  and  _396
REMARK  165  A    between atoms: _398  and  _400
REMARK  166  A    between atoms: _400  and  _401
REMARK  167  A    between atoms: _403  and  _405
REMARK  168  A    between atoms: _405  and  _406
REMARK  169  A    between atoms: _405  and  _408
REMARK  170  A    between atoms: _408  and  _409
REMARK  171  A    between atoms: _412  and  _414
REMARK  172  A    between atoms: _414  and  _415
REMARK  173  A    between atoms: _417  and  _419
REMARK  174  A    between atoms: _419  and  _420
REMARK  175  A    between atoms: _422  and  _424
REMARK  176  A    between atoms: _424  and  _425
REMARK  177  A    between atoms: _424  and  _427
REMARK  178  A    between atoms: _427  and  _428
REMARK  179  A    between atoms: _431  and  _433
REMARK  180  A    between atoms: _433  and  _434
REMARK  181  A    between atoms: _433  and  _436
REMARK  182  A    between atoms: _436  and  _437
REMARK  183  A    between atoms: _440  and  _442
REMARK  184  A    between atoms: _442  and  _443
REMARK  185  A    between atoms: _442  and  _445
REMARK  186  A    between atoms: _445  and  _446
REMARK  187  A    between atoms: _450  and  _451
REMARK  188  A    between atoms: _456  and  _458
REMARK  189  A    between atoms: _458  and  _459
REMARK  190  A    between atoms: _458  and  _461
REMARK  191  A    between atoms: _464  and  _466
REMARK  192  A    between atoms: _466  and  _467
REMARK  193  A    between atoms: _466  and  _469
REMARK  194  A    between atoms: _469  and  _470
REMARK  195  A    between atoms: _475  and  _477
REMARK  196  A    between atoms: _477  and  _478
REMARK  197  A    between atoms: _477  and  _480
REMARK  198  A    between atoms: _480  and  _481
REMARK  199  A    between atoms: _484  and  _486
REMARK  200  A    between atoms: _486  and  _487
REMARK  201  A    between atoms: _486  and  _489
REMARK  202  A    between atoms: _489  and  _490
REMARK  203  A    between atoms: _493  and  _495
REMARK  204  A    between atoms: _495  and  _496
REMARK  205  A    between atoms: _498  and  _500
REMARK  206  A    between atoms: _500  and  _501
REMARK  207  A    between atoms: _500  and  _503
REMARK  208  A    between atoms: _503  and  _504
REMARK  209  A    between atoms: _504  and  _505
REMARK  210  A    between atoms: _505  and  _506
REMARK                            x       y       z     vdW  Elec       q    Type
REMARK                         _______ _______ _______ _____ _____    ______ ____
ROOT
ATOM      1  CA  LEU A   1     -13.073  11.807  14.760  0.00  0.00    +0.133 C 
ENDROOT
BRANCH   1   2
ATOM      2  N   LEU A   1     -13.977  12.929  14.605  0.00  0.00    -0.239 NA
ATOM      3  H   LEU A   1     -14.361  13.398  15.450  0.00  0.00    +0.142 HD
ENDBRANCH   1   2
BRANCH   1   4
ATOM      4  C   LEU A   1     -13.889  10.832  15.511  0.00  0.00    +0.224 C 
ATOM      5  O   LEU A   1     -14.517  11.171  16.499  0.00  0.00    -0.287 OA
ENDBRANCH   1   4
BRANCH   1   6
ATOM      6  CB  LEU A   1     -11.860  12.165  15.650  0.00  0.00    +0.025 C 
BRANCH   6   7
ATOM      7  CG  LEU A   1     -11.008  13.389  15.253  0.00  0.00    +0.002 C 
ATOM      8  CD2 LEU A   1      -9.844  13.638  16.211  0.00  0.00    +0.000 C 
ATOM      9  CD1 LEU A   1     -10.480  13.276  13.848  0.00  0.00    +0.000 C 
ENDBRANCH   6   7
ENDBRANCH   1   6
TORSDOF 4
REMARK  Name = ../refined-set-2016/1qbu/1qbu_pocket.pdb
REMARK  210 active torsions:
REMARK  status: ('A' for Active; 'I' for Inactive)
REMARK    1  A    between atoms: _1  and  _3
REMARK    2  A    between atoms: _3  and  _4
REMARK    3  A    between atoms: _3  and  _6
REMARK    4  A    between atoms: _6  and  _7
REMARK    5  A    between atoms: _7  and  _8
REMARK    6  A    between atoms: _8  and  _9
REMARK    7  A    between atoms: _18  and  _20
REMARK    8  A    between atoms: _20  and  _21
REMARK    9  A    between atoms: _20  and  _23
REMARK   10  A    between atoms: _23  and  _24
REMARK   11  A    between atoms: _27  and  _29
REMARK   12  A    between atoms: _29  and  _30
REMARK   13  A    between atoms: _29  and  _32
REMARK   14  A    between atoms: _32  and  _33
REMARK   15  A    between atoms: _36  and  _38
REMARK   16  A    between atoms: _38  and  _39
REMARK   17  A    between atoms: _38  and  _41
REMARK   18  A    between atoms: _41  and  _42
REMARK   19  A    between atoms: _45  and  _47
REMARK   20  A    between atoms: _47  and  _48
REMARK   21  A    between atoms: _47  and  _50
REMARK   22  A    between atoms: _50  and  _51
REMARK   23  A    between atoms: _54  and  _56
REMARK   24  A    between atoms: _56  and  _57
REMARK   25  A    between atoms: _59  and  _61
REMARK   26  A    between atoms: _61  and  _62
REMARK   27  A    between atoms: _65  and  _67
REMARK   28  A    between atoms: _67  and  _68
REMARK   29  A    between atoms: _67  and  _70
REMARK   30  A    between atoms: _70  and  _71
REMARK   31  A    between atoms: _74  and  _76
REMARK   32  A    between atoms: _76  and  _77
REMARK   33  A    between atoms: _76  and  _79
REMARK   34  A    between atoms: _79  and  _80
REMARK   35  A    between atoms: _83  and  _85
REMARK   36  A    between atoms: _85  and  _86
REMARK   37  A    between atoms: _85  and  _88
REMARK   38  A    between atoms: _88  and  _89
REMARK   39  A    between atoms: _92  and  _94
REMARK   40  A    between atoms: _94  and  _95
REMARK   41  A    between atoms: _94  and  _97
REMARK   42  A    between atoms: _100  and  _102
REMARK   43  A    between atoms: _102  and  _103
REMARK   44  A    between atoms: _102  and  _105
REMARK   45  A    between atoms: _105  and  _106
REMARK   46  A    between atoms: _109  and  _111
REMARK   47  A    between atoms: _111  and  _112
REMARK   48  A    between atoms: _111  and  _114
REMARK   49  A    between atoms: _114  and  _115
REMARK   50  A    between atoms: _115  and  _116
REMARK   51  A    between atoms: _116  and  _117
REMARK   52  A    between atoms: _117  and  _118
REMARK   53  A    between atoms: _122  and  _124
REMARK   54  A    between atoms: _124  and  _125
REMARK   55  A    between atoms: _124  and  _127
REMARK   56  A    between atoms: _127  and  _128
REMARK   57  A    between atoms: _128  and  _129
REMARK   58  A    between atoms: _131  and  _133
REMARK   59  A    between atoms: _133  and  _134
REMARK   60  A    between atoms: _133  and  _136
REMARK   61  A    between atoms: _136  and  _137
REMARK   62  A    between atoms: _140  and  _142
REMARK   63  A    between atoms: _142  and  _143
REMARK   64  A    between atoms: _145  and  _147
REMARK   65  A    between atoms: _147  and  _148
REMARK   66  A    between atoms: _150  and  _152
REMARK   67  A    between atoms: _152  and  _153
REMARK   68  A    between atoms: _152  and  _155
REMARK   69  A    between atoms: _155  and  _156
REMARK   70  A    between atoms: _159  and  _161
REMARK   71  A    between atoms: _161  and  _162
REMARK   72  A    between atoms: _164  and  _166
REMARK   73  A    between atoms: _166  and  _167
REMARK   74  A    between atoms: _169  and  _171
REMARK   75  A    between atoms: _171  and  _172
REMARK   76  A    between atoms: _171  and  _174
REMARK   77  A    between atoms: _174  and  _175
REMARK   78  A    between atoms: _181  and  _183
REMARK   79  A    between atoms: _183  and  _184
REMARK   80  A    between atoms: _183  and  _186
REMARK   81  A    between atoms: _186  and  _187
REMARK   82  A    between atoms: _190  and  _192
REMARK   83  A    between atoms: _192  and  _193
REMARK   84  A    between atoms: _192  and  _195
REMARK   85  A    between atoms: _195  and  _196
REMARK   86  A    between atoms: _199  and  _201
REMARK   87  A    between atoms: _201  and  _202
REMARK   88  A    between atoms: _201  and  _204
REMARK   89  A    between atoms: _204  and  _205
REMARK   90  A    between atoms: _209  and  _210
REMARK   91  A    between atoms: _215  and  _217
REMARK   92  A    between atoms: _217  and  _218
REMARK   93  A    between atoms: _217  and  _220
REMARK   94  A    between atoms: _223  and  _225
REMARK   95  A    between atoms: _225  and  _226
REMARK   96  A    between atoms: _225  and  _228
REMARK   97  A    between atoms: _228  and  _229
REMARK   98  A    between atoms: _234  and  _236
REMARK   99  A    between atoms: _236  and  _237
REMARK  100  A    between atoms: _236  and  _239
REMARK  101  A    between atoms: _239  and  _240
REMARK  102  A    between atoms: _243  and  _245
REMARK  103  A    between atoms: _245  and  _246
REMARK  104  A    between atoms: _245  and  _248
REMARK  105  A    between atoms: _248  and  _249
REMARK  106  A    between atoms: _252  and  _254
REMARK  107  A    between atoms: _254  and  _255
REMARK  108  A    between atoms: _257  and  _259
REMARK  109  A    between atoms: _259  and  _260
REMARK  110  A    between atoms: _259  and  _262
REMARK  111  A    between atoms: _262  and  _263
REMARK  112  A    between atoms: _263  and  _264
REMARK  113  A    between atoms: _264  and  _265
REMARK  114  A    between atoms: _274  and  _276
REMARK  115  A    between atoms: _276  and  _277
REMARK  116  A    between atoms: _276  and  _279
REMARK  117  A    between atoms: _279  and  _280
REMARK  118  A    between atoms: _285  and  _287
REMARK  119  A    between atoms: _287  and  _288
REMARK  120  A    between atoms: _287  and  _290
REMARK  121  A    between atoms: _290  and  _291
REMARK  122  A    between atoms: _291  and  _292
REMARK  123  A    between atoms: _292  and  _293
REMARK  124  A    between atoms: _302  and  _304
REMARK  125  A    between atoms: _304  and  _305
REMARK  126  A    between atoms: _304  and  _307
REMARK  127  A    between atoms: _307  and  _308
REMARK  128  A    between atoms: _311  and  _313
REMARK  129  A    between atoms: _313  and  _314
REMARK  130  A    between atoms: _313  and  _316
REMARK  131  A    between atoms: _316  and  _317
REMARK  132  A    between atoms: _320  and  _322
REMARK  133  A    between atoms: _322  and  _323
REMARK  134  A    between atoms: _322  and  _325
REMARK  135  A    between atoms: _325  and  _326
REMARK  136  A    between atoms: _329  and  _331
REMARK  137  A    between atoms: _331  and  _332
REMARK  138  A    between atoms: _331  and  _334
REMARK  139  A    between atoms: _334  and  _335
REMARK  140  A    between atoms: _338  and  _340
REMARK  141  A    between atoms: _340  and  _341
REMARK  142  A    between atoms: _343  and  _345
REMARK  143  A    between atoms: _345  and  _346
REMARK  144  A    between atoms: _349  and  _351
REMARK  145  A    between atoms: _351  and  _352
REMARK  146  A    between atoms: _351  and  _354
REMARK  147  A    between atoms: _354  and  _355
REMARK  148  A    between atoms: _358  and  _360
REMARK  149  A    between atoms: _360  and  _361
REMARK  150  A    between atoms: _360  and  _363
REMARK  151  A    between atoms: _363  and  _364
REMARK  152  A    between atoms: _367  and  _369
REMARK  153  A    between atoms: _369  and  _370
REMARK  154  A    between atoms: _369  and  _372
REMARK  155  A    between atoms: _372  and  _373
REMARK  156  A    between atoms: _376  and  _378
REMARK  157  A    between atoms: _378  and  _379
REMARK  158  A    between atoms: _378  and  _381
REMARK  159  A    between atoms: _384  and  _386
REMARK  160  A    between atoms: _386  and  _387
REMARK  161  A    between atoms: _386  and  _389
REMARK  162  A    between atoms: _389  and  _390
REMARK  163  A    between atoms: _393  and  _395
REMARK  164  A    between atoms: _395  and  _396
REMARK  165  A    between atoms: _398  and  _400
REMARK  166  A    between atoms: _400  and  _401
REMARK  167  A    between atoms: _403  and  _405
REMARK  168  A    between atoms: _405  and  _406
REMARK  169  A    between atoms: _405  and  _408
REMARK  170  A    between atoms: _408  and  _409
REMARK  171  A    between atoms: _412  and  _414
REMARK  172  A    between atoms: _414  and  _415
REMARK  173  A    between atoms: _417  and  _419
REMARK  174  A    between atoms: _419  and  _420
REMARK  175  A    between atoms: _422  and  _424
REMARK  176  A    between atoms: _424  and  _425
REMARK  177  A    between atoms: _424  and  _427
REMARK  178  A    between atoms: _427  and  _428
REMARK  179  A    between atoms: _431  and  _433
REMARK  180  A    between atoms: _433  and  _434
REMARK  181  A    between atoms: _433  and  _436
REMARK  182  A    between atoms: _436  and  _437
REMARK  183  A    between atoms: _440  and  _442
REMARK  184  A    between atoms: _442  and  _443
REMARK  185  A    between atoms: _442  and  _445
REMARK  186  A    between atoms: _445  and  _446
REMARK  187  A    between atoms: _450  and  _451
REMARK  188  A    between atoms: _456  and  _458
REMARK  189  A    between atoms: _458  and  _459
REMARK  190  A    between atoms: _458  and  _461
REMARK  191  A    between atoms: _464  and  _466
REMARK  192  A    between atoms: _466  and  _467
REMARK  193  A    between atoms: _466  and  _469
REMARK  194  A    between atoms: _469  and  _470
REMARK  195  A    between atoms: _475  and  _477
REMARK  196  A    between atoms: _477  and  _478
REMARK  197  A    between atoms: _477  and  _480
REMARK  198  A    between atoms: _480  and  _481
REMARK  199  A    between atoms: _484  and  _486
REMARK  200  A    between atoms: _486  and  _487
REMARK  201  A    between atoms: _486  and  _489
REMARK  202  A    between atoms: _489  and  _490
REMARK  203  A    between atoms: _493  and  _495
REMARK  204  A    between atoms: _495  and  _496
REMARK  205  A    between atoms: _498  and  _500
REMARK  206  A    between atoms: _500  and  _501
REMARK  207  A    between atoms: _500  and  _503
REMARK  208  A    between atoms: _503  and  _504
REMARK  209  A    between atoms: _504  and  _505
REMARK  210  A    between atoms: _505  and  _506
REMARK                            x       y       z     vdW  Elec       q    Type
REMARK                         _______ _______ _______ _____ _____    ______ ____
ROOT
ATOM      1  CA  ILE A   5     -16.488  15.700  22.912  0.00  0.00    +0.149 C 
ENDROOT
BRANCH   1   4
ATOM      2  C   ASN A   4     -17.953  13.885  23.423  0.00  0.00    +0.241 C 
ATOM      3  O   ASN A   4     -18.447  14.487  24.370  0.00  0.00    -0.273 OA
ATOM      4  N   ILE A   5     -17.049  14.390  22.604  0.00  0.00    -0.297 N 
ATOM      5  H   ILE A   5     -16.744  13.866  21.759  0.00  0.00    +0.150 HD
BRANCH   2   6
ATOM      6  CA  ASN A   4     -18.379  12.494  23.157  0.00  0.00    +0.158 C 
BRANCH   6   8
ATOM      7  C   VAL A   3     -17.186  11.344  24.876  0.00  0.00    +0.241 C 
ATOM      8  N   ASN A   4     -18.360  11.761  24.430  0.00  0.00    -0.297 N 
ATOM      9  H   ASN A   4     -19.236  11.577  24.960  0.00  0.00    +0.150 HD
ATOM     10  O   VAL A   3     -16.174  11.419  24.212  0.00  0.00    -0.273 OA
BRANCH   7  11
ATOM     11  CA  VAL A   3     -17.112  10.746  26.252  0.00  0.00    +0.149 C 
BRANCH  11  14
ATOM     12  C   PRO A   2     -16.370   8.536  26.656  0.00  0.00    +0.241 C 
ATOM     13  O   PRO A   2     -17.482   8.295  27.092  0.00  0.00    -0.273 OA
ATOM     14  N   VAL A   3     -16.083   9.726  26.144  0.00  0.00    -0.297 N 
ATOM     15  H   VAL A   3     -15.168   9.919  25.689  0.00  0.00    +0.150 HD
BRANCH  12  18
ATOM     16  C   THR A   1     -14.507   7.542  24.449  0.00  0.00    +0.244 C 
ATOM     17  N   PRO A   2     -14.185   7.671  25.732  0.00  0.00    -0.272 N 
ATOM     18  CA  PRO A   2     -15.220   7.531  26.752  0.00  0.00    +0.152 C 
ATOM     19  CB  PRO A   2     -14.405   7.711  28.038  0.00  0.00    +0.031 C 
ATOM     20  CG  PRO A   2     -13.009   7.236  27.692  0.00  0.00    +0.024 C 
ATOM     21  CD  PRO A   2     -12.858   7.809  26.296  0.00  0.00    +0.094 C 
ATOM     22  O   THR A   1     -15.556   7.051  24.051  0.00  0.00    -0.273 OA
BRANCH  16  23
ATOM     23  CA  THR A   1     -13.474   8.006  23.455  0.00  0.00    +0.172 C 
BRANCH  23  24
ATOM     24  N   THR A   1     -13.550   7.075  22.341  0.00  0.00    -0.236 NA
ATOM     25  H   THR A   1     -14.134   7.229  21.494  0.00  0.00    +0.142 HD
ENDBRANCH  23  24
BRANCH  23  26
ATOM     26  CB  THR A   1     -13.745   9.416  22.937  0.00  0.00    +0.135 C 
ATOM     27  CG2 THR A   1     -15.047   9.480  22.161  0.00  0.00    +0.034 C 
BRANCH  26  28
ATOM     28  OG1 THR A   1     -13.751  10.351  24.017  0.00  0.00    -0.383 OA
ATOM     29  HG1 THR A   1     -14.459  10.103  24.663  0.00  0.00    +0.210 HD
ENDBRANCH  26  28
ENDBRANCH  23  26
ENDBRANCH  16  23
ENDBRANCH  12  18
ENDBRANCH  11  14
BRANCH  11  30
ATOM     30  CB  VAL A   3     -16.676  11.796  27.308  0.00  0.00    +0.027 C 
ATOM     31  CG2 VAL A   3     -16.359  11.162  28.657  0.00  0.00    +0.002 C 
ATOM     32  CG1 VAL A   3     -17.754  12.843  27.591  0.00  0.00    +0.002 C 
ENDBRANCH  11  30
ENDBRANCH   7  11
ENDBRANCH   6   8
BRANCH   6  33
ATOM     33  CB  ASN A   4     -19.776  12.702  22.611  0.00  0.00    +0.114 C 
BRANCH  33  34
ATOM     34  CG  ASN A   4     -20.347  11.419  22.134  0.00  0.00    +0.222 C 
ATOM     35  ND2 ASN A   4     -21.629  11.308  22.386  0.00  0.00    -0.329 N 
ATOM     36 HD21 ASN A   4     -22.131  12.076  22.877  0.00  0.00    +0.145 HD
ATOM     37 HD22 ASN A   4     -22.144  10.452  22.095  0.00  0.00    +0.145 HD
ATOM     38  OD1 ASN A   4     -19.703  10.555  21.563  0.00  0.00    -0.275 OA
ENDBRANCH  33  34
ENDBRANCH   6  33
ENDBRANCH   2   6
ENDBRANCH   1   4
BRANCH   1  39
ATOM     39  C   ILE A   5     -16.641  16.617  21.733  0.00  0.00    +0.241 C 
ATOM     40  N   ILE A   6     -17.160  17.795  21.998  0.00  0.00    -0.297 N 
ATOM     41  H   ILE A   6     -17.600  17.970  22.924  0.00  0.00    +0.150 HD
ATOM     42  O   ILE A   5     -16.303  16.276  20.616  0.00  0.00    -0.273 OA
BRANCH  40  43
ATOM     43  CA  ILE A   6     -17.123  18.862  20.998  0.00  0.00    +0.149 C 
BRANCH  43  44
ATOM     44  C   ILE A   6     -15.983  19.805  21.306  0.00  0.00    +0.241 C 
ATOM     45  O   ILE A   6     -15.973  20.381  22.378  0.00  0.00    -0.273 OA
ATOM     46  N   GLY A   7     -15.044  19.945  20.377  0.00  0.00    -0.295 N 
ATOM     47  H   GLY A   7     -15.180  19.503  19.445  0.00  0.00    +0.150 HD
BRANCH  46  48
ATOM     48  CA  GLY A   7     -13.831  20.702  20.635  0.00  0.00    +0.176 C 
BRANCH  48  49
ATOM     49  C   GLY A   7     -13.826  21.958  19.813  0.00  0.00    +0.243 C 
ATOM     50  N   ARG A   8     -12.788  22.749  20.002  0.00  0.00    -0.298 N 
ATOM     51  H   ARG A   8     -11.998  22.423  20.595  0.00  0.00    +0.150 HD
ATOM     52  O   GLY A   7     -14.719  22.237  19.028  0.00  0.00    -0.273 OA
BRANCH  50  53
ATOM     53  CA  ARG A   8     -12.729  24.077  19.392  0.00  0.00    +0.137 C 
BRANCH  53  54
ATOM     54  C   ARG A   8     -13.023  24.152  17.912  0.00  0.00    +0.227 C 
ATOM     55  O   ARG A   8     -13.601  25.115  17.409  0.00  0.00    -0.286 OA
ENDBRANCH  53  54
BRANCH  53  56
ATOM     56  CB  ARG A   8     -11.386  24.744  19.615  0.00  0.00    +0.031 C 
BRANCH  56  57
ATOM     57  CG  ARG A   8     -11.106  24.973  21.086  0.00  0.00    +0.045 C 
BRANCH  57  58
ATOM     58  CD  ARG A   8      -9.923  25.909  21.313  0.00  0.00    +0.174 C 
BRANCH  58  59
ATOM     59  NE  ARG A   8      -8.661  25.277  20.958  0.00  0.00    -0.265 N 
ATOM     60  HE  ARG A   8      -8.268  24.551  21.591  0.00  0.00    +0.259 HD
ATOM     61  CZ  ARG A   8      -7.990  25.594  19.851  0.00  0.00    +0.342 C 
ATOM     62  NH2 ARG A   8      -6.813  25.022  19.636  0.00  0.00    -0.292 N 
ATOM     63 HH21 ARG A   8      -6.432  24.342  20.324  0.00  0.00    +0.255 HD
ATOM     64 HH22 ARG A   8      -6.271  25.254  18.779  0.00  0.00    +0.255 HD
ATOM     65  NH1 ARG A   8      -8.465  26.459  18.954  0.00  0.00    -0.292 N 
ATOM     66 HH11 ARG A   8      -9.389  26.912  19.107  0.00  0.00    +0.255 HD
ATOM     67 HH12 ARG A   8      -7.912  26.681  18.102  0.00  0.00    +0.255 HD
ENDBRANCH  58  59
ENDBRANCH  57  58
ENDBRANCH  56  57
ENDBRANCH  53  56
ENDBRANCH  50  53
ENDBRANCH  48  49
ENDBRANCH  46  48
ENDBRANCH  43  44
BRANCH  43  68
ATOM     68  CB  ILE A   6     -18.417  19.669  21.059  0.00  0.00    +0.027 C 
ATOM     69  CG2 ILE A   6     -18.432  20.798  20.026  0.00  0.00    +0.002 C 
BRANCH  68  70
ATOM     70  CG1 ILE A   6     -19.642  18.801  20.823  0.00  0.00    +0.002 C 
ATOM     71  CD1 ILE A   6     -19.898  18.557  19.342  0.00  0.00    +0.000 C 
ENDBRANCH  68  70
ENDBRANCH  43  68
ENDBRANCH  40  43
ENDBRANCH   1  39
BRANCH   1  72
ATOM     72  CB  ILE A   5     -15.024  15.436  23.276  0.00  0.00    +0.027 C 
ATOM     73  CG2 ILE A   5     -14.098  16.618  23.104  0.00  0.00    +0.002 C 
BRANCH  72  74
ATOM     74  CG1 ILE A   5     -14.912  14.983  24.726  0.00  0.00    +0.002 C 
ATOM     75  CD1 ILE A   5     -13.531  14.416  25.052  0.00  0.00    +0.000 C 
ENDBRANCH  72  74
ENDBRANCH   1  72
TORSDOF 28
